<?xml version="1.0" encoding="UTF-8"?>

<!-- generated on 2024-03-26 14:22:54 by Eclipse SUMO netedit Version 1.19.0
<configuration xmlns:xsi="http://www.w3.org/2001/XMLSchema-instance" xsi:noNamespaceSchemaLocation="http://sumo.dlr.de/xsd/neteditConfiguration.xsd">

    <input>
        <sumocfg-file value="E:\Python_teaching\SUMO Teaching\TLM LT 2110 - March 2024\Day 02\run_simulation.sumocfg"/>
        <additional-files value="E:\Python_teaching\SUMO Teaching\TLM LT 2110 - March 2024\Day 02\bus.add.xml"/>
        <route-files value="E:\Python_teaching\SUMO Teaching\TLM LT 2110 - March 2024\Day 02\route.rou.xml"/>
        <sumo-net-file value="E:\Python_teaching\SUMO Teaching\TLM LT 2110 - March 2024\Day 02\my_toy_network.net.xml"/>
    </input>

    <output>
        <output-file value="E:\Python_teaching\SUMO Teaching\TLM LT 2110 - March 2024\Day 02\my_toy_network.net.xml"/>
    </output>

    <processing>
        <geometry.min-radius.fix.railways value="false"/>
        <geometry.max-grade.fix value="false"/>
        <offset.disable-normalization value="true"/>
        <lefthand value="true"/>
    </processing>

    <junctions>
        <no-turnarounds value="true"/>
        <junctions.corner-detail value="5"/>
        <junctions.limit-turn-speed value="5.50"/>
        <rectangular-lane-cut value="0"/>
    </junctions>

    <pedestrian>
        <walkingareas value="0"/>
    </pedestrian>

    <netedit>
        <ignore.routeelements value="false"/>
    </netedit>

</configuration>
-->

<net version="1.16" junctionCornerDetail="5" lefthand="true" limitTurnSpeed="5.50" xmlns:xsi="http://www.w3.org/2001/XMLSchema-instance" xsi:noNamespaceSchemaLocation="http://sumo.dlr.de/xsd/net_file.xsd">

    <location netOffset="0.00,0.00" convBoundary="-34.13,43.34,121.53,94.27" origBoundary="-10000000000.00,-10000000000.00,10000000000.00,10000000000.00" projParameter="!"/>

    <edge id=":J6_0" function="internal">
        <lane id=":J6_0_0" index="0" speed="13.89" length="8.84" shape="4.25,76.47 6.18,75.01 7.43,73.80 8.80,72.92 11.05,72.49"/>
        <lane id=":J6_0_1" index="1" speed="13.89" length="8.84" shape="2.58,73.74 4.90,72.05 6.46,70.71 8.14,69.77 10.85,69.29"/>
    </edge>
    <edge id=":J6_2" function="internal">
        <lane id=":J6_2_0" index="0" speed="12.74" length="8.36" shape="2.53,69.45 4.88,70.92 6.56,71.92 8.36,72.45 11.05,72.49"/>
        <lane id=":J6_2_1" index="1" speed="11.42" length="8.36" shape="4.12,66.68 5.99,67.88 7.31,68.75 8.72,69.23 10.85,69.29"/>
    </edge>

    <edge id="E4" from="J5" to="J6" priority="-1">
        <lane id="E4_0" index="0" speed="13.89" length="42.03" shape="-31.63,98.37 4.25,76.47"/>
        <lane id="E4_1" index="1" speed="13.89" length="42.03" shape="-33.30,95.64 2.58,73.74"/>
    </edge>
    <edge id="E5" from="J7" to="J6" priority="-1">
        <lane id="E5_0" index="0" speed="13.89" length="43.97" shape="-35.57,47.50 2.53,69.45"/>
        <lane id="E5_1" index="1" speed="13.89" length="43.97" shape="-33.97,44.73 4.12,66.68"/>
    </edge>
    <edge id="E6" from="J6" to="J8" priority="-1">
        <lane id="E6_0" index="0" speed="13.89" length="111.00" shape="11.05,72.49 121.83,65.51"/>
        <lane id="E6_1" index="1" speed="13.89" length="111.00" shape="10.85,69.29 121.63,62.32"/>
    </edge>

    <tlLogic id="J6" type="static" programID="0" offset="0">
        <phase duration="42" state="GGrr"/>
        <phase duration="3"  state="yyrr"/>
        <phase duration="42" state="rrGG"/>
        <phase duration="3"  state="rryy"/>
    </tlLogic>

    <junction id="J5" type="dead_end" x="-34.13" y="94.27" incLanes="" intLanes="" shape="-34.13,94.27 -30.80,99.73"/>
    <junction id="J6" type="traffic_light" x="9.25" y="67.79" incLanes="E4_0 E4_1 E5_0 E5_1" intLanes=":J6_0_0 :J6_0_1 :J6_2_0 :J6_2_1" shape="10.75,67.70 11.15,74.08 8.67,74.74 7.92,75.35 7.22,76.09 6.34,76.93 5.08,77.83 1.75,72.37 2.31,71.85 2.38,71.60 2.31,71.34 2.09,71.09 1.73,70.84 4.92,65.30 6.95,66.66 7.68,67.16 8.45,67.51 9.41,67.70">
        <request index="0" response="0000" foes="1100" cont="0"/>
        <request index="1" response="0000" foes="1100" cont="0"/>
        <request index="2" response="0011" foes="0011" cont="0"/>
        <request index="3" response="0011" foes="0011" cont="0"/>
    </junction>
    <junction id="J7" type="dead_end" x="-33.17" y="43.34" incLanes="" intLanes="" shape="-33.17,43.34 -36.37,48.88"/>
    <junction id="J8" type="dead_end" x="121.53" y="60.72" incLanes="E6_0 E6_1" intLanes="" shape="121.93,67.11 121.53,60.72"/>

    <connection from="E4" to="E6" fromLane="0" toLane="0" via=":J6_0_0" tl="J6" linkIndex="2" dir="s" state="O"/>
    <connection from="E4" to="E6" fromLane="1" toLane="1" via=":J6_0_1" tl="J6" linkIndex="3" dir="s" state="O"/>
    <connection from="E5" to="E6" fromLane="0" toLane="0" via=":J6_2_0" tl="J6" linkIndex="0" dir="s" state="o"/>
    <connection from="E5" to="E6" fromLane="1" toLane="1" via=":J6_2_1" tl="J6" linkIndex="1" dir="s" state="o"/>

    <connection from=":J6_0" to="E6" fromLane="0" toLane="0" dir="s" state="M"/>
    <connection from=":J6_0" to="E6" fromLane="1" toLane="1" dir="s" state="M"/>
    <connection from=":J6_2" to="E6" fromLane="0" toLane="0" dir="s" state="M"/>
    <connection from=":J6_2" to="E6" fromLane="1" toLane="1" dir="s" state="M"/>

</net>
