<?xml version="1.0" encoding="UTF-8"?>


<routes xmlns:xsi="http://www.w3.org/2001/XMLSchema-instance" xsi:noNamespaceSchemaLocation="http://sumo.dlr.de/xsd/routes_file.xsd">
<!--    your xml code goes here-->
	<vType id="car" accel="1.5" length="4" maxSpeed="50" sigma="0.5" />
	
	<route id="route_1" edges="E4 E6"/>
	<route id="route_2" edges="E5 E6"/>
	
	
	<vehicle id="0" type="car" route="route_1" depart="20"/>
	<flow id="car_flow_2" color="0,1,0" begin="50" end="600" number="200" type="car" route="route_2" departLane="free"/>
	<flow id="car_flow_1" color="1,1,0" begin="100" end="500" number="100" type="car" route="route_1" departLane="free"/>
	
	
	
</routes>
