<?xml version="1.0" encoding="UTF-8"?>

<!-- generated on 2023-09-01 05:56:17 by Eclipse SUMO sumo Version 1.18.0
-->

<configuration xmlns:xsi="http://www.w3.org/2001/XMLSchema-instance" xsi:noNamespaceSchemaLocation="http://sumo.dlr.de/xsd/sumoConfiguration.xsd">

    <input>
        <net-file value="my_toy_network.net.xml"/>
		<route-files value = "route.rou.xml"/>
		<additional-files value="bus.add.xml"/>
		
		
    </input>

</configuration>
