<?xml version="1.0" encoding="UTF-8"?>

<!-- generated on 2024-08-10 12:36:11.245747 by randomTrips.py v1_20_0+0002-343658e7c64
<configuration>
    <net-file value="network/colombo_galleroad.net.xml"/>
    <route-file value="intermediate_output/whitelist_warmup.rou.xml"/>
    <speed-exponent value="4.0"/>
    <fringe-factor value="200"/>
    <seed value="12345"/>
    <min-distance value="150.0"/>
    <max-distance value="5000.0"/>
    <validate value="True"/>
    <end value="900.0"/>
    <period value="0.1"/>
</configuration>
-->

<!-- generated on 2024-08-10 12:36:10 by Eclipse SUMO duarouter Version 1.20.0
<configuration xmlns:xsi="http://www.w3.org/2001/XMLSchema-instance" xsi:noNamespaceSchemaLocation="http://sumo.dlr.de/xsd/duarouterConfiguration.xsd">

    <input>
        <net-file value="network/colombo_galleroad.net.xml"/>
        <route-files value="trips.trips.xml"/>
    </input>

    <output>
        <output-file value="intermediate_output/whitelist_warmup.rou.xml"/>
        <alternatives-output value="NUL"/>
    </output>

    <time>
        <begin value="0"/>
        <end value="900.0"/>
    </time>

    <report>
        <no-warnings value="true"/>
        <ignore-errors value="true"/>
        <no-step-log value="true"/>
    </report>

</configuration>
-->

<routes xmlns:xsi="http://www.w3.org/2001/XMLSchema-instance" xsi:noNamespaceSchemaLocation="http://sumo.dlr.de/xsd/routes_file.xsd">
    <vehicle id="1" depart="0.10">
        <route edges="758636098#2 19811337#1"/>
    </vehicle>
    <vehicle id="2" depart="0.20">
        <route edges="758636098#2 19811337#1"/>
    </vehicle>
    <vehicle id="3" depart="0.30">
        <route edges="gneE5 CR_MP_020 CR_MP_021 CR_MP_022 CR_MP_023 CR_MP_024 CR_MP_025 CR_MP_026 CR_MP_027 CR_MP_028 CR_MP_029 CR_MP_030 CR_MP_031 CR_MP_032 CR_MP_033 CR_MP_034 CR_MP_035 CR_MP_036 CR_MP_037 CR_MP_038 CR_MP_039 CR_MP_040 CR_MP_041 CR_MP_042 CR_MP_043 102651364#22 102651364#23.9"/>
    </vehicle>
    <vehicle id="4" depart="0.40">
        <route edges="gneE5 51133939#5 51133939#6 51133939#7 51133939#8 51133939#9 51133939#10 51133939#12 51133939#13 51133939#14 51133939#15 51133939#17 51133939#18 51086286#1 51086286#2 51086286#3 920870625#0 920870625#1 920870624#1 920870624#2 669189459 199382582#0"/>
    </vehicle>
    <vehicle id="5" depart="0.50">
        <route edges="758636098#2 19811337#1"/>
    </vehicle>
    <vehicle id="6" depart="0.60">
        <route edges="51086283#3 351910071 CR_MP_001 CR_MP_002 CR_MP_003 CR_MP_004 CR_MP_005 CR_MP_006 CR_MP_007 CR_MP_008 CR_MP_009 CR_MP_010 CR_MP_011 CR_MP_012 CR_MP_013 CR_MP_014 CR_MP_015 CR_MP_016 OR_O_014"/>
    </vehicle>
    <vehicle id="7" depart="0.70">
        <route edges="gneE5 51133939#5 51133939#6 51133939#7 51133939#8 51133939#9 51133939#10 51133939#12 51133939#13 51133939#14 51133939#15 51133939#17 51133939#18 51086286#1 51086286#2 51086286#3 920870625#0 920870625#1 920870624#1 920870624#2 337818184#0 337818184#1"/>
    </vehicle>
    <vehicle id="8" depart="0.80">
        <route edges="-19811337#1 758636098#3 758636098#4 758636098#7 758636098#8 758636098#9 758636098#10 758636098#11 758636098#13 758636098#15 758636098#16 758636098#17 758636098#18 758636098#19 758636098#20 758636098#21 758636098#22 102650983#0 102650983#2 112446384#1 51133939#1 51133939#2 51133939#3 51133939#4 OP_gneE5"/>
    </vehicle>
    <vehicle id="10" depart="1.00">
        <route edges="51086283#3 351910071 CR_MP_001 CR_MP_002 CR_MP_003 CR_MP_004 CR_MP_005 CR_MP_006 CR_MP_007 CR_MP_008 CR_MP_009 CR_MP_010 CR_MP_011 CR_MP_012 CR_MP_013 CR_MP_014 CR_MP_015 CR_MP_016 CR_MP_017 CR_MP_018 CR_MP_019 OP_gneE5"/>
    </vehicle>
    <vehicle id="11" depart="1.10">
        <route edges="758636098#2 758636098#3 758636098#4 758636098#7 758636098#8 758636098#9 758636098#10 758636098#11 758636098#13 758636098#15 758636098#16 758636098#17 758636098#18 758636098#19 758636098#20 758636098#21 758636098#22 102650983#0 102650983#2 112446384#1 51133939#1 51133939#2 51133939#3 51133939#4 51133939#5 51133939#6 51133939#7 51133939#8 51133939#9 51133939#10 51133939#12 51133939#13 51133939#14 51133939#15 51133939#17 51133939#18 51086286#1 51086286#2 51086286#3 920870625#0 920870625#1 920870624#1 920870624#2 337818184#0 337818184#1"/>
    </vehicle>
    <vehicle id="13" depart="1.30">
        <route edges="758636098#2 758636098#3"/>
    </vehicle>
    <vehicle id="14" depart="1.40">
        <route edges="920870624#1 920870624#2 669189459 199382582#0"/>
    </vehicle>
    <vehicle id="15" depart="1.50">
        <route edges="OR_I_010 CR_MP_013 CR_MP_014 CR_MP_015 CR_MP_016 CR_MP_017 CR_MP_018 CR_MP_019 CR_MP_020 CR_MP_021 CR_MP_022 CR_MP_023 CR_MP_024 CR_MP_025 CR_MP_026 CR_MP_027 CR_MP_028 CR_MP_029 CR_MP_030 CR_MP_031 CR_MP_032 CR_MP_033 CR_MP_034 CR_MP_035 CR_MP_036 CR_MP_037 CR_MP_038 CR_MP_039 CR_MP_040 CR_MP_041 CR_MP_042 CR_MP_043 19811337#1"/>
    </vehicle>
    <vehicle id="16" depart="1.60">
        <route edges="758636098#4 758636098#7 758636098#8 758636098#9 758636098#10 758636098#11 758636098#13 758636098#15 758636098#16 758636098#17 758636098#18 758636098#19 758636098#20 758636098#21 758636098#22 102650983#0 102650983#2 112446384#1 51133939#1 51133939#2 51133939#3 51133939#4 51133939#5 51133939#6 51133939#7 51133939#8 51133939#9 51133939#10 51133939#12 51133939#13 51133939#14 51133939#15 51133939#17 51133939#18 51086286#1 51086286#2 51086286#3 920870625#0 920870625#1 920870624#1 920870624#2 337818184#0 337818184#1"/>
    </vehicle>
    <vehicle id="19" depart="1.90">
        <route edges="gneE5 51133939#5 51133939#6 51133939#7 51133939#8 51133939#9 51133939#10 51133939#12 51133939#13 51133939#14 51133939#15 51133939#17 51133939#18 51086286#1 51086286#2 51086286#3 920870625#0 920870625#1 920870624#1"/>
    </vehicle>
    <vehicle id="20" depart="2.00">
        <route edges="758636098#2 19811337#1"/>
    </vehicle>
    <vehicle id="21" depart="2.10">
        <route edges="758636098#2 758636098#3 758636098#4 758636098#7 758636098#8 758636098#9 758636098#10 758636098#11 758636098#13 758636098#15 758636098#16 758636098#17 758636098#18 758636098#19 758636098#20 758636098#21 758636098#22 102650983#0 102650983#2 112446384#1 51133939#1 51133939#2 51133939#3 51133939#4 51133939#5 51133939#6 51133939#7 51133939#8 51133939#9 51133939#10 51133939#12 51133939#13 51133939#14 51133939#15 51133939#17 51133939#18 51086286#1 51086286#2 51086286#3 920870625#0 920870625#1 920870624#1 920870624#2 337818184#0 337818184#1"/>
    </vehicle>
    <vehicle id="23" depart="2.30">
        <route edges="-19811337#1 758636098#3 758636098#4 758636098#7 758636098#8 758636098#9 758636098#10 758636098#11 758636098#13 758636098#15 758636098#16 758636098#17 758636098#18 758636098#19 758636098#20 758636098#21 758636098#22 102650983#0 102650983#2 112446384#1 51133939#1 51133939#2 51133939#3 51133939#4 51133939#5 51133939#6 51133939#7 51133939#8 51133939#9 51133939#10 51133939#12 51133939#13 51133939#14 51133939#15 51133939#17 51133939#18 51086286#1 51086286#2 51086286#3 920870625#0 920870625#1 920870624#1 920870624#2 337818184#0 337818184#1"/>
    </vehicle>
    <vehicle id="25" depart="2.50">
        <route edges="51086283#3 351910071 CR_MP_001 CR_MP_002 CR_MP_003 CR_MP_004 CR_MP_005 CR_MP_006 CR_MP_007 OR_O_006"/>
    </vehicle>
    <vehicle id="27" depart="2.70">
        <route edges="758636098#2 758636098#3 758636098#4 758636098#7 758636098#8 758636098#9 758636098#10 758636098#11 758636098#13 758636098#15 758636098#16 758636098#17 758636098#18 758636098#19 758636098#20 758636098#21 758636098#22 102650983#0 102650983#2 112446384#1 51133939#1 51133939#2 51133939#3 51133939#4 51133939#5 51133939#6 51133939#7 51133939#8 51133939#9 51133939#10 51133939#12 51133939#13 51133939#14 51133939#15 51133939#17 51133939#18 51086286#1 51086286#2 51086286#3 920870625#0 920870625#1 920870624#1 920870624#2 337818184#0 337818184#1"/>
    </vehicle>
    <vehicle id="28" depart="2.80">
        <route edges="gneE5 51133939#5 51133939#6 51133939#7 51133939#8 51133939#9 51133939#10 51133939#12 51133939#13 51133939#14 51133939#15 51133939#17 51133939#18 51086286#1 51086286#2 51086286#3 920870625#0 920870625#1 920870624#1 920870624#2 669189459 199382582#0"/>
    </vehicle>
    <vehicle id="29" depart="2.90">
        <route edges="758636098#2 758636098#3 758636098#4 758636098#7 758636098#8 758636098#9 758636098#10 758636098#11 758636098#13 758636098#15 758636098#16 758636098#17 758636098#18 758636098#19 758636098#20 758636098#21 758636098#22 102650983#0 102650983#2 112446384#1 51133939#1 51133939#2 51133939#3 51133939#4 51133939#5 51133939#6 51133939#7 51133939#8 51133939#9 51133939#10 51133939#12 51133939#13 51133939#14 51133939#15 51133939#17 51133939#18 51086286#1 51086286#2 51086286#3 920870625#0 920870625#1 920870624#1 920870624#2 337818184#0 337818184#1"/>
    </vehicle>
    <vehicle id="30" depart="3.00">
        <route edges="-19811337#1 758636098#3 758636098#4 758636098#7 758636098#8 758636098#9 758636098#10 758636098#11 758636098#13 758636098#15 758636098#16 758636098#17 758636098#18 758636098#19 758636098#20 758636098#21 758636098#22 102650983#0"/>
    </vehicle>
    <vehicle id="31" depart="3.10">
        <route edges="758636098#2 19811337#1"/>
    </vehicle>
    <vehicle id="32" depart="3.20">
        <route edges="758636098#2 758636098#3 758636098#4 758636098#7 758636098#8 758636098#9 758636098#10 758636098#11 758636098#13 758636098#15 758636098#16 758636098#17 758636098#18 758636098#19 758636098#20 758636098#21 758636098#22 102650983#0 102650983#2 112446384#1 51133939#1 51133939#2 51133939#3"/>
    </vehicle>
    <vehicle id="35" depart="3.50">
        <route edges="gneE5 51133939#5 51133939#6 51133939#7 51133939#8 51133939#9 51133939#10 51133939#12 51133939#13 51133939#14 51133939#15 51133939#17 51133939#18 51086286#1 51086286#2 51086286#3 920870625#0 920870625#1 920870624#1 920870624#2 669189459 199382582#0"/>
    </vehicle>
    <vehicle id="36" depart="3.60">
        <route edges="112446385#5 CR_MP_001 CR_MP_002 CR_MP_003 CR_MP_004 CR_MP_005 CR_MP_006 CR_MP_007 CR_MP_008 CR_MP_009 CR_MP_010 CR_MP_011 CR_MP_012 CR_MP_013 CR_MP_014 CR_MP_015 CR_MP_016 CR_MP_017 CR_MP_018 CR_MP_019 OP_gneE5"/>
    </vehicle>
    <vehicle id="37" depart="3.70">
        <route edges="758636098#2 758636098#3 758636098#4 758636098#7 758636098#8 758636098#9 758636098#10 758636098#11 758636098#13 758636098#15 758636098#16 758636098#17 758636098#18 758636098#19 758636098#20 758636098#21 758636098#22 102650983#0 102650983#2 112446384#1 51133939#1 51133939#2 51133939#3 51133939#4 51133939#5 51133939#6 51133939#7 51133939#8 51133939#9 51133939#10 51133939#12 51133939#13 51133939#14 51133939#15 51133939#17 51133939#18 51086286#1 51086286#2 51086286#3 920870625#0 920870625#1 920870624#1 920870624#2 337818184#0 337818184#1"/>
    </vehicle>
    <vehicle id="39" depart="3.90">
        <route edges="OR_I_020 758636098#22 102650983#0 102650983#2 112446384#1 51133939#1 51133939#2 51133939#3 51133939#4 51133939#5 51133939#6 51133939#7 51133939#8 51133939#9 51133939#10 51133939#12 51133939#13 51133939#14 51133939#15 51133939#17 51133939#18 51086286#1 51086286#2 51086286#3 920870625#0 920870625#1 920870624#1 920870624#2 669189459 199382582#0"/>
    </vehicle>
    <vehicle id="41" depart="4.10">
        <route edges="758636098#2 758636098#3 758636098#4 758636098#7 758636098#8 758636098#9 758636098#10 758636098#11 758636098#13 758636098#15 758636098#16 758636098#17 758636098#18 758636098#19 758636098#20 758636098#21 758636098#22 102650983#0 102650983#2 112446384#1 51133939#1 51133939#2 51133939#3 51133939#4 51133939#5 51133939#6 51133939#7 51133939#8 51133939#9 51133939#10 51133939#12 51133939#13 51133939#14 51133939#15 51133939#17 51133939#18 51086286#1 51086286#2 51086286#3 920870625#0 920870625#1 920870624#1 920870624#2 337818184#0 337818184#1"/>
    </vehicle>
    <vehicle id="42" depart="4.20">
        <route edges="758636098#22 102650983#0 102650983#2 112446384#1 51133939#1 51133939#2 51133939#3 51133939#4 51133939#5 51133939#6 51133939#7 51133939#8 51133939#9 51133939#10 51133939#12 51133939#13 51133939#14 51133939#15 51133939#17 51133939#18 51086286#1 51086286#2 51086286#3 920870625#0 920870625#1 920870624#1 920870624#2 669189459 199382582#0"/>
    </vehicle>
    <vehicle id="43" depart="4.30">
        <route edges="51086283#3 351910071 199382582#0"/>
    </vehicle>
    <vehicle id="44" depart="4.40">
        <route edges="758636098#2 758636098#3 758636098#4 758636098#7 758636098#8 758636098#9 758636098#10 758636098#11 758636098#13 758636098#15 758636098#16 758636098#17 758636098#18 758636098#19 758636098#20 758636098#21 758636098#22 102650983#0 102650983#2 112446384#1 51133939#1 51133939#2 51133939#3 51133939#4 51133939#5 51133939#6 51133939#7 51133939#8 51133939#9 51133939#10 51133939#12 51133939#13 51133939#14 51133939#15 51133939#17 51133939#18 51086286#1 51086286#2 51086286#3 920870625#0 920870625#1 920870624#1 920870624#2 337818184#0 337818184#1"/>
    </vehicle>
    <vehicle id="46" depart="4.60">
        <route edges="-19811337#1 758636098#3 758636098#4 758636098#7 758636098#8 758636098#9 758636098#10 758636098#11 758636098#13 758636098#15 758636098#16 758636098#17 758636098#18 758636098#19 758636098#20 758636098#21 758636098#22 102650983#0 102650983#2 112446384#1 51133939#1 51133939#2 51133939#3 51133939#4 51133939#5 51133939#6 51133939#7 51133939#8 51133939#9 51133939#10 51133939#12 51133939#13 51133939#14 51133939#15 51133939#17 51133939#18 51086286#1 51086286#2 51086286#3 920870625#0 920870625#1 920870624#1 920870624#2 337818184#0 337818184#1"/>
    </vehicle>
    <vehicle id="47" depart="4.70">
        <route edges="51133939#17 51133939#18 51086286#1 51086286#2 51086286#3 920870625#0 920870625#1 920870624#1 920870624#2 669189459 199382582#0"/>
    </vehicle>
    <vehicle id="48" depart="4.80">
        <route edges="51086283#3 351910071 CR_MP_001 CR_MP_002 CR_MP_003 CR_MP_004 CR_MP_005 CR_MP_006 CR_MP_007 CR_MP_008 CR_MP_009 CR_MP_010 CR_MP_011 CR_MP_012 CR_MP_013 CR_MP_014 CR_MP_015 CR_MP_016 CR_MP_017 CR_MP_018 CR_MP_019 OP_gneE5"/>
    </vehicle>
    <vehicle id="49" depart="4.90">
        <route edges="758636098#2 758636098#3 758636098#4 758636098#7 758636098#8 758636098#9 758636098#10 758636098#11 758636098#13 758636098#15 758636098#16 758636098#17 758636098#18 758636098#19 758636098#20 758636098#21 758636098#22 102650983#0 102650983#2 112446384#1 51133939#1 51133939#2 51133939#3 51133939#4 51133939#5 51133939#6 51133939#7 51133939#8 51133939#9 51133939#10 51133939#12 51133939#13 51133939#14 51133939#15 51133939#17 51133939#18 51086286#1 51086286#2 51086286#3 920870625#0 920870625#1 920870624#1 920870624#2 337818184#0 337818184#1"/>
    </vehicle>
    <vehicle id="50" depart="5.00">
        <route edges="gneE5 CR_MP_020 CR_MP_021 CR_MP_022 CR_MP_023 CR_MP_024 CR_MP_025 CR_MP_026 CR_MP_027 CR_MP_028 CR_MP_029 CR_MP_030 CR_MP_031 CR_MP_032 CR_MP_033 CR_MP_034 CR_MP_035 CR_MP_036 CR_MP_037 CR_MP_038 CR_MP_039 CR_MP_040 CR_MP_041 CR_MP_042 CR_MP_043 102651364#22 102651364#23.9"/>
    </vehicle>
    <vehicle id="51" depart="5.10">
        <route edges="758636098#2 19811337#1"/>
    </vehicle>
    <vehicle id="52" depart="5.20">
        <route edges="51086283#3 351910071 CR_MP_001 CR_MP_002 CR_MP_003 CR_MP_004 CR_MP_005 CR_MP_006 CR_MP_007 CR_MP_008 CR_MP_009 CR_MP_010 CR_MP_011 CR_MP_012 CR_MP_013 CR_MP_014 CR_MP_015 CR_MP_016 CR_MP_017 CR_MP_018 CR_MP_019 OP_gneE5"/>
    </vehicle>
    <vehicle id="57" depart="5.70">
        <route edges="51086283#3 351910071 CR_MP_001 CR_MP_002 CR_MP_003 CR_MP_004 CR_MP_005 CR_MP_006 CR_MP_007 CR_MP_008 CR_MP_009 CR_MP_010 CR_MP_011 CR_MP_012 CR_MP_013 CR_MP_014 CR_MP_015 CR_MP_016 CR_MP_017 CR_MP_018 CR_MP_019 CR_MP_020 CR_MP_021 CR_MP_022 CR_MP_023 CR_MP_024 CR_MP_025 OR_O_019"/>
    </vehicle>
    <vehicle id="58" depart="5.80">
        <route edges="51086283#3 351910071 CR_MP_001 CR_MP_002 CR_MP_003 CR_MP_004 CR_MP_005 CR_MP_006 CR_MP_007 CR_MP_008 CR_MP_009 CR_MP_010 CR_MP_011 CR_MP_012 CR_MP_013 CR_MP_014 CR_MP_015 CR_MP_016 CR_MP_017 CR_MP_018 CR_MP_019 CR_MP_020 CR_MP_021 CR_MP_022 CR_MP_023 CR_MP_024 CR_MP_025"/>
    </vehicle>
    <vehicle id="60" depart="6.00">
        <route edges="758636098#2 758636098#3 758636098#4 758636098#7 758636098#8 758636098#9 758636098#10 758636098#11 758636098#13 758636098#15 758636098#16 758636098#17 758636098#18 758636098#19 758636098#20 758636098#21 758636098#22 102650983#0 102650983#2 112446384#1 51133939#1 51133939#2 51133939#3 51133939#4 51133939#5 51133939#6 51133939#7 51133939#8 51133939#9 51133939#10 51133939#12 51133939#13 51133939#14 51133939#15 51133939#17 51133939#18 51086286#1 51086286#2 51086286#3 920870625#0 920870625#1 920870624#1 920870624#2 337818184#0 337818184#1"/>
    </vehicle>
    <vehicle id="62" depart="6.20">
        <route edges="758636098#2 758636098#3 758636098#4 758636098#7 758636098#8 758636098#9 758636098#10 758636098#11 758636098#13 758636098#15 758636098#16 758636098#17 758636098#18 758636098#19 758636098#20 758636098#21 758636098#22 102650983#0 102650983#2 112446384#1 51133939#1 51133939#2 51133939#3 51133939#4 51133939#5 51133939#6 51133939#7 51133939#8 51133939#9 51133939#10 51133939#12 51133939#13 51133939#14 51133939#15 51133939#17 51133939#18 51086286#1 51086286#2 51086286#3 920870625#0 920870625#1 920870624#1 920870624#2 337818184#0 337818184#1"/>
    </vehicle>
    <vehicle id="63" depart="6.30">
        <route edges="758636098#2 19811337#1"/>
    </vehicle>
    <vehicle id="69" depart="6.90">
        <route edges="-19811337#1 102651364#22 102651364#23.9"/>
    </vehicle>
    <vehicle id="70" depart="7.00">
        <route edges="gneE5 CR_MP_020 CR_MP_021 CR_MP_022 CR_MP_023 CR_MP_024 CR_MP_025 CR_MP_026 CR_MP_027 CR_MP_028 CR_MP_029 CR_MP_030 CR_MP_031 CR_MP_032 CR_MP_033 CR_MP_034 CR_MP_035 CR_MP_036 CR_MP_037 CR_MP_038 CR_MP_039 CR_MP_040 CR_MP_041 CR_MP_042 CR_MP_043 102651364#22 102651364#23.9"/>
    </vehicle>
    <vehicle id="71" depart="7.10">
        <route edges="112446385#5 CR_MP_001 CR_MP_002 CR_MP_003 CR_MP_004 CR_MP_005 CR_MP_006 CR_MP_007 CR_MP_008 CR_MP_009 CR_MP_010 CR_MP_011 CR_MP_012 CR_MP_013 CR_MP_014 CR_MP_015 CR_MP_016 CR_MP_017 CR_MP_018 CR_MP_019 OP_gneE5"/>
    </vehicle>
    <vehicle id="74" depart="7.40">
        <route edges="112446385#5 CR_MP_001 CR_MP_002 CR_MP_003 CR_MP_004 CR_MP_005 CR_MP_006 CR_MP_007 CR_MP_008 CR_MP_009 CR_MP_010 CR_MP_011 CR_MP_012 CR_MP_013 CR_MP_014 CR_MP_015 CR_MP_016 CR_MP_017 CR_MP_018 CR_MP_019 CR_MP_020 CR_MP_021 CR_MP_022 CR_MP_023 CR_MP_024 CR_MP_025 CR_MP_026 CR_MP_027 CR_MP_028 CR_MP_029 CR_MP_030 CR_MP_031 CR_MP_032 CR_MP_033 CR_MP_034 CR_MP_035 CR_MP_036 CR_MP_037 CR_MP_038 OR_O_028"/>
    </vehicle>
    <vehicle id="76" depart="7.60">
        <route edges="gneE5 51133939#5 51133939#6 51133939#7 51133939#8 51133939#9 51133939#10 51133939#12 51133939#13 51133939#14 51133939#15 51133939#17 51133939#18 51086286#1 51086286#2 51086286#3 920870625#0 920870625#1 920870624#1 920870624#2 337818184#0 337818184#1"/>
    </vehicle>
    <vehicle id="78" depart="7.80">
        <route edges="CR_MP_042 CR_MP_043 102651364#22 102651364#23.9"/>
    </vehicle>
    <vehicle id="80" depart="8.00">
        <route edges="758636098#2 758636098#3 758636098#4 758636098#7 758636098#8 758636098#9 758636098#10 758636098#11 758636098#13 758636098#15 758636098#16 758636098#17 758636098#18 758636098#19 758636098#20 758636098#21 758636098#22 102650983#0 102650983#2 112446384#1 51133939#1 51133939#2 51133939#3 51133939#4 51133939#5 51133939#6 51133939#7 51133939#8 51133939#9 51133939#10 51133939#12 51133939#13 51133939#14 51133939#15 51133939#17 51133939#18 51086286#1 51086286#2 51086286#3 920870625#0 920870625#1 920870624#1 920870624#2 337818184#0 337818184#1"/>
    </vehicle>
    <vehicle id="81" depart="8.10">
        <route edges="112446385#5 CR_MP_001 CR_MP_002 CR_MP_003 CR_MP_004 CR_MP_005 CR_MP_006 CR_MP_007 CR_MP_008 CR_MP_009 CR_MP_010 CR_MP_011 CR_MP_012 CR_MP_013 CR_MP_014 CR_MP_015 CR_MP_016 CR_MP_017 CR_MP_018 CR_MP_019 CR_MP_020 CR_MP_021 CR_MP_022 CR_MP_023 CR_MP_024 CR_MP_025 CR_MP_026 CR_MP_027 CR_MP_028 OR_O_021"/>
    </vehicle>
    <vehicle id="82" depart="8.20">
        <route edges="758636098#2 758636098#3 758636098#4 758636098#7 758636098#8 758636098#9 758636098#10 758636098#11 758636098#13 758636098#15 758636098#16 758636098#17 758636098#18 758636098#19 758636098#20 758636098#21 758636098#22 102650983#0 102650983#2 112446384#1 51133939#1 51133939#2 51133939#3 51133939#4 51133939#5 51133939#6 51133939#7 51133939#8 51133939#9 51133939#10 51133939#12 51133939#13 51133939#14 51133939#15 51133939#17 51133939#18 51086286#1 51086286#2 51086286#3 920870625#0 920870625#1 920870624#1 920870624#2 337818184#0 337818184#1"/>
    </vehicle>
    <vehicle id="83" depart="8.30">
        <route edges="758636098#2 758636098#3 758636098#4 758636098#7 758636098#8 758636098#9 758636098#10 758636098#11 758636098#13 758636098#15 758636098#16 758636098#17 758636098#18 758636098#19 758636098#20 758636098#21 758636098#22 102650983#0 102650983#2 112446384#1 51133939#1 51133939#2 51133939#3 51133939#4 51133939#5 51133939#6 51133939#7 51133939#8 51133939#9 51133939#10 51133939#12 51133939#13 51133939#14 51133939#15 51133939#17 51133939#18 51086286#1 51086286#2 51086286#3 920870625#0 920870625#1 920870624#1 920870624#2 337818184#0 337818184#1"/>
    </vehicle>
    <vehicle id="84" depart="8.40">
        <route edges="OR_I_006 CR_MP_008 CR_MP_009 CR_MP_010 CR_MP_011 CR_MP_012 CR_MP_013 CR_MP_014 CR_MP_015 CR_MP_016 CR_MP_017 CR_MP_018 CR_MP_019 OP_gneE5"/>
    </vehicle>
    <vehicle id="86" depart="8.60">
        <route edges="51086283#3 351910071 199382582#0"/>
    </vehicle>
    <vehicle id="89" depart="8.90">
        <route edges="gneE5 51133939#5 51133939#6 51133939#7 51133939#8 51133939#9 51133939#10 51133939#12 51133939#13 51133939#14 51133939#15 51133939#17 51133939#18 51086286#1 51086286#2 51086286#3 920870625#0 920870625#1 920870624#1 920870624#2 669189459 199382582#0"/>
    </vehicle>
    <vehicle id="90" depart="9.00">
        <route edges="758636098#2 758636098#3 758636098#4 758636098#7 758636098#8 758636098#9 758636098#10 758636098#11 758636098#13 758636098#15 758636098#16 758636098#17 758636098#18 758636098#19 758636098#20 758636098#21 758636098#22 102650983#0 102650983#2 112446384#1 51133939#1 51133939#2 51133939#3 51133939#4 51133939#5 51133939#6 51133939#7 51133939#8 51133939#9 51133939#10 51133939#12 51133939#13 51133939#14 51133939#15 51133939#17 51133939#18 51086286#1 51086286#2 51086286#3 920870625#0 920870625#1 920870624#1 920870624#2 337818184#0 337818184#1"/>
    </vehicle>
    <vehicle id="91" depart="9.10">
        <route edges="758636098#22 102650983#0 102650983#2 112446384#1 51133939#1 51133939#2 51133939#3 51133939#4 51133939#5 51133939#6 51133939#7 51133939#8 51133939#9 51133939#10 51133939#12 51133939#13 51133939#14 51133939#15 51133939#17 51133939#18 51086286#1 51086286#2 51086286#3 920870625#0 920870625#1 920870624#1 920870624#2 337818184#0 337818184#1"/>
    </vehicle>
    <vehicle id="92" depart="9.20">
        <route edges="758636098#2 758636098#3 758636098#4 758636098#7 758636098#8 758636098#9 758636098#10 758636098#11 758636098#13 758636098#15 758636098#16 758636098#17 758636098#18 758636098#19 758636098#20 758636098#21 758636098#22 102650983#0 102650983#2 112446384#1 51133939#1 51133939#2 51133939#3 51133939#4 51133939#5 51133939#6 51133939#7 51133939#8 51133939#9 51133939#10 51133939#12 51133939#13 51133939#14 51133939#15 51133939#17 51133939#18 51086286#1 51086286#2 51086286#3 920870625#0 920870625#1 920870624#1 920870624#2 337818184#0 337818184#1"/>
    </vehicle>
    <vehicle id="93" depart="9.30">
        <route edges="-19811337#1 758636098#3 758636098#4 758636098#7 758636098#8 758636098#9 758636098#10 758636098#11 758636098#13 758636098#15 758636098#16 758636098#17 758636098#18 758636098#19 758636098#20 758636098#21 758636098#22 102650983#0 102650983#2 112446384#1 51133939#1 51133939#2 51133939#3 51133939#4 OP_gneE5"/>
    </vehicle>
    <vehicle id="97" depart="9.70">
        <route edges="758636098#2 758636098#3 758636098#4 758636098#7 758636098#8 758636098#9 758636098#10 758636098#11 758636098#13 758636098#15 758636098#16 758636098#17 758636098#18 758636098#19 758636098#20 758636098#21 758636098#22 102650983#0 102650983#2 112446384#1 51133939#1 51133939#2 51133939#3 51133939#4 51133939#5 51133939#6 51133939#7 51133939#8 51133939#9 51133939#10 51133939#12"/>
    </vehicle>
    <vehicle id="99" depart="9.90">
        <route edges="51086283#3 351910071 199382582#0"/>
    </vehicle>
    <vehicle id="100" depart="10.00">
        <route edges="758636098#2 758636098#3 758636098#4 758636098#7 758636098#8 758636098#9 758636098#10 758636098#11 758636098#13 758636098#15 758636098#16 758636098#17 758636098#18 758636098#19 758636098#20 758636098#21 758636098#22 102650983#0 102650983#2 112446384#1 51133939#1 51133939#2 51133939#3 51133939#4 51133939#5 51133939#6 51133939#7 51133939#8 51133939#9 51133939#10 51133939#12 51133939#13 51133939#14 51133939#15 51133939#17 51133939#18 51086286#1 51086286#2 51086286#3 920870625#0 920870625#1 920870624#1 920870624#2 337818184#0 337818184#1"/>
    </vehicle>
    <vehicle id="101" depart="10.10">
        <route edges="920870625#0 920870625#1 920870624#1 920870624#2 337818184#0 337818184#1"/>
    </vehicle>
    <vehicle id="102" depart="10.20">
        <route edges="gneE5 51133939#5 51133939#6 51133939#7 51133939#8 51133939#9 51133939#10 51133939#12 51133939#13 51133939#14 51133939#15 51133939#17 51133939#18 51086286#1 51086286#2 51086286#3 920870625#0 920870625#1 920870624#1 920870624#2 669189459 199382582#0"/>
    </vehicle>
    <vehicle id="103" depart="10.30">
        <route edges="758636098#2 758636098#3 758636098#4 758636098#7 758636098#8 758636098#9 758636098#10 758636098#11 758636098#13 758636098#15 758636098#16 758636098#17 758636098#18 758636098#19 758636098#20 758636098#21 758636098#22 102650983#0 102650983#2 112446384#1 51133939#1 51133939#2 51133939#3 51133939#4 51133939#5 51133939#6 51133939#7 51133939#8 51133939#9 51133939#10 51133939#12 51133939#13 51133939#14 51133939#15 51133939#17 51133939#18 51086286#1 51086286#2 51086286#3 920870625#0 920870625#1 920870624#1 920870624#2 337818184#0 337818184#1"/>
    </vehicle>
    <vehicle id="104" depart="10.40">
        <route edges="gneE5 51133939#5 51133939#6 51133939#7 51133939#8 51133939#9 51133939#10 51133939#12 51133939#13 51133939#14 51133939#15 51133939#17 51133939#18 51086286#1 51086286#2 51086286#3 920870625#0 920870625#1 920870624#1 920870624#2 337818184#0 337818184#1"/>
    </vehicle>
    <vehicle id="105" depart="10.50">
        <route edges="OR_I_031 CR_MP_042 CR_MP_043 19811337#1"/>
    </vehicle>
    <vehicle id="107" depart="10.70">
        <route edges="758636098#2 758636098#3 758636098#4 758636098#7 758636098#8"/>
    </vehicle>
    <vehicle id="108" depart="10.80">
        <route edges="51086283#3 351910071 199382582#0"/>
    </vehicle>
    <vehicle id="109" depart="10.90">
        <route edges="51086283#3 351910071 199382582#0"/>
    </vehicle>
    <vehicle id="110" depart="11.00">
        <route edges="758636098#2 758636098#3 758636098#4 758636098#7 758636098#8 758636098#9 758636098#10 758636098#11 758636098#13 758636098#15 758636098#16 758636098#17 758636098#18 758636098#19 758636098#20 758636098#21 758636098#22 102650983#0 102650983#2 112446384#1 51133939#1 51133939#2 51133939#3 51133939#4 51133939#5 51133939#6 51133939#7 51133939#8 51133939#9 51133939#10 51133939#12 51133939#13 51133939#14 51133939#15 51133939#17 51133939#18 51086286#1 51086286#2 51086286#3 920870625#0 920870625#1 920870624#1 920870624#2 337818184#0 337818184#1"/>
    </vehicle>
    <vehicle id="112" depart="11.20">
        <route edges="758636098#2 758636098#3 758636098#4 758636098#7 758636098#8 758636098#9 758636098#10 758636098#11 758636098#13 758636098#15 758636098#16 758636098#17 758636098#18 758636098#19 758636098#20 758636098#21 758636098#22 102650983#0 102650983#2 112446384#1"/>
    </vehicle>
    <vehicle id="113" depart="11.30">
        <route edges="758636098#2 758636098#3 758636098#4 758636098#7 758636098#8 758636098#9 758636098#10 758636098#11 758636098#13 758636098#15 758636098#16 758636098#17 758636098#18 758636098#19 758636098#20 758636098#21 758636098#22 102650983#0 102650983#2 112446384#1 51133939#1 51133939#2 51133939#3 51133939#4 OP_gneE5"/>
    </vehicle>
    <vehicle id="114" depart="11.40">
        <route edges="51086283#3 351910071 199382582#0"/>
    </vehicle>
    <vehicle id="115" depart="11.50">
        <route edges="51086283#3 351910071 199382582#0"/>
    </vehicle>
    <vehicle id="118" depart="11.80">
        <route edges="758636098#2 758636098#3 758636098#4 758636098#7 758636098#8 758636098#9 758636098#10 758636098#11 758636098#13 758636098#15 758636098#16 758636098#17 758636098#18 758636098#19 758636098#20 758636098#21 758636098#22 102650983#0 102650983#2 112446384#1 51133939#1 51133939#2 51133939#3 51133939#4 OP_gneE5"/>
    </vehicle>
    <vehicle id="121" depart="12.10">
        <route edges="gneE5 CR_MP_020 CR_MP_021 CR_MP_022 CR_MP_023 CR_MP_024 CR_MP_025 CR_MP_026 CR_MP_027 CR_MP_028 CR_MP_029 CR_MP_030 CR_MP_031 CR_MP_032 CR_MP_033 CR_MP_034 CR_MP_035 CR_MP_036 CR_MP_037 CR_MP_038 CR_MP_039 CR_MP_040 CR_MP_041 CR_MP_042 CR_MP_043 19811337#1"/>
    </vehicle>
    <vehicle id="124" depart="12.40">