<?xml version="1.0" encoding="UTF-8"?>

<!-- generated on 2024-04-12 00:06:03 by Eclipse SUMO netedit Version 1.19.0
<configuration xmlns:xsi="http://www.w3.org/2001/XMLSchema-instance" xsi:noNamespaceSchemaLocation="http://sumo.dlr.de/xsd/neteditConfiguration.xsd">

    <input>
        <sumo-net-file value="E:\OneDrive\SUMO\Coding\Coding\bpm_shared_05102021\5_Cross_Maliban_Real_Counts\3_reduce_simulation_time\network\colombo_galleroad_edges_renamed_60kmph_08122022.net.xml"/>
    </input>

    <output>
        <output-file value="E:\OneDrive\SUMO\Coding\Coding\bpm_shared_05102021\5_Cross_Maliban_Real_Counts\3_reduce_simulation_time\network\colombo_galleroad_edges_renamed_60kmph_08122022.net.xml"/>
        <output.street-names value="true"/>
    </output>

    <processing>
        <geometry.min-radius.fix.railways value="false"/>
        <geometry.max-grade.fix value="false"/>
        <offset.disable-normalization value="true"/>
        <lefthand value="1"/>
    </processing>

    <junctions>
        <no-turnarounds value="true"/>
        <junctions.corner-detail value="5"/>
        <junctions.limit-turn-speed value="5.50"/>
        <rectangular-lane-cut value="0"/>
    </junctions>

    <pedestrian>
        <walkingareas value="0"/>
    </pedestrian>

</configuration>
-->

<net version="1.16" junctionCornerDetail="5" lefthand="true" limitTurnSpeed="5.50" xmlns:xsi="http://www.w3.org/2001/XMLSchema-instance" xsi:noNamespaceSchemaLocation="http://sumo.dlr.de/xsd/net_file.xsd">

    <location netOffset="-370117.39,-743706.39" convBoundary="5341.20,5268.05,7525.57,10395.65" origBoundary="79.824321,6.727010,80.179274,7.028193" projParameter="+proj=utm +zone=44 +ellps=WGS84 +datum=WGS84 +units=m +no_defs"/>

    <type id="highway.living_street" priority="2" numLanes="1" speed="2.78" disallow="tram rail_urban rail rail_electric rail_fast ship" oneway="1"/>
    <type id="highway.primary" priority="12" numLanes="2" speed="27.78" disallow="tram rail_urban rail rail_electric rail_fast ship" oneway="1"/>
    <type id="highway.residential" priority="3" numLanes="1" speed="13.89" disallow="tram rail_urban rail rail_electric rail_fast ship" oneway="1"/>
    <type id="highway.secondary" priority="11" numLanes="1" speed="27.78" disallow="tram rail_urban rail rail_electric rail_fast ship" oneway="1"/>
    <type id="highway.tertiary" priority="10" numLanes="1" speed="22.22" disallow="tram rail_urban rail rail_electric rail_fast ship" oneway="1"/>
    <type id="highway.trunk" priority="13" numLanes="2" speed="27.78" disallow="pedestrian bicycle tram rail_urban rail rail_electric rail_fast ship" oneway="1"/>

    <edge id=":1249848065_0" function="internal">
        <lane id=":1249848065_0_0" index="0" allow="bus" speed="16.67" length="17.94" shape="5441.12,10184.46 5437.77,10189.21 5434.59,10192.46 5431.57,10194.90 5428.70,10197.23"/>
    </edge>
    <edge id=":1249848065_1" function="internal">
        <lane id=":1249848065_1_0" index="0" disallow="pedestrian bicycle tram rail_urban rail rail_electric rail_fast ship" speed="16.67" length="17.94" shape="5441.12,10184.46 5432.10,10200.05"/>
        <lane id=":1249848065_1_1" index="1" disallow="pedestrian bicycle tram rail_urban rail rail_electric rail_fast ship" speed="16.67" length="17.94" shape="5443.86,10186.11 5434.86,10201.66"/>
        <lane id=":1249848065_1_2" index="2" disallow="pedestrian bicycle tram rail_urban rail rail_electric rail_fast ship" speed="16.67" length="17.94" shape="5446.61,10187.75 5437.63,10203.26"/>
        <lane id=":1249848065_1_3" index="3" disallow="pedestrian bicycle tram rail_urban rail rail_electric rail_fast ship" speed="16.67" length="17.94" shape="5449.35,10189.40 5440.40,10204.87"/>
    </edge>
    <edge id=":1252439109_0" function="internal">
        <lane id=":1252439109_0_0" index="0" disallow="pedestrian bicycle tram rail_urban rail rail_electric rail_fast ship" speed="16.67" length="14.67" shape="6547.10,8966.21 6540.49,8979.14"/>
        <lane id=":1252439109_0_1" index="1" disallow="pedestrian bicycle tram rail_urban rail rail_electric rail_fast ship" speed="16.67" length="14.67" shape="6549.98,8967.61 6543.30,8980.66"/>
        <lane id=":1252439109_0_2" index="2" disallow="pedestrian bicycle tram rail_urban rail rail_electric rail_fast ship" speed="16.67" length="14.67" shape="6552.86,8969.00 6546.11,8982.19"/>
    </edge>
    <edge id=":1252487409_0" function="internal">
        <lane id=":1252487409_0_0" index="0" disallow="pedestrian bicycle tram rail_urban rail rail_electric rail_fast ship" speed="6.73" length="9.30" shape="6584.68,8894.75 6583.16,8896.69 6581.33,8897.70 6579.18,8897.79 6576.72,8896.95"/>
    </edge>
    <edge id=":1252487409_1" function="internal">
        <lane id=":1252487409_1_0" index="0" disallow="pedestrian bicycle tram rail_urban rail rail_electric rail_fast ship" speed="16.67" length="14.39" shape="6584.68,8894.75 6577.63,8907.30"/>
    </edge>
    <edge id=":1252487409_2" function="internal">
        <lane id=":1252487409_2_0" index="0" disallow="pedestrian bicycle tram rail_urban rail rail_electric rail_fast ship" speed="7.53" length="2.43" shape="6587.46,8896.33 6585.81,8898.11"/>
    </edge>
    <edge id=":1252487409_3" function="internal">
        <lane id=":1252487409_3_0" index="0" disallow="pedestrian bicycle tram rail_urban rail rail_electric rail_fast ship" speed="16.67" length="14.35" shape="6587.46,8896.33 6580.42,8908.86"/>
        <lane id=":1252487409_3_1" index="1" disallow="pedestrian bicycle tram rail_urban rail rail_electric rail_fast ship" speed="16.67" length="14.35" shape="6590.25,8897.91 6583.22,8910.41"/>
    </edge>
    <edge id=":1252487409_7" function="internal">
        <lane id=":1252487409_7_0" index="0" disallow="pedestrian bicycle tram rail_urban rail rail_electric rail_fast ship" speed="7.53" length="9.49" shape="6585.81,8898.11 6583.46,8898.80 6580.43,8898.42 6576.72,8896.95"/>
    </edge>
    <edge id=":1252487409_5" function="internal">
        <lane id=":1252487409_5_0" index="0" disallow="pedestrian bicycle tram rail_urban rail rail_electric rail_fast ship" speed="6.41" length="9.04" shape="6575.30,8899.82 6577.36,8901.23 6578.43,8902.95 6578.52,8904.97 6577.63,8907.30"/>
        <lane id=":1252487409_5_1" index="1" disallow="pedestrian bicycle tram rail_urban rail rail_electric rail_fast ship" speed="7.23" length="11.81" shape="6575.30,8899.82 6578.61,8901.86 6580.56,8904.05 6581.17,8906.38 6580.42,8908.86"/>
    </edge>
    <edge id=":1252511599_0" function="internal">
        <lane id=":1252511599_0_0" index="0" disallow="pedestrian bicycle tram rail_urban rail rail_electric rail_fast ship" speed="6.43" length="9.03" shape="7065.32,7718.45 7062.84,7718.63 7060.93,7717.96 7059.58,7716.45 7058.79,7714.09"/>
    </edge>
    <edge id=":1252511599_1" function="internal">
        <lane id=":1252511599_1_0" index="0" disallow="pedestrian bicycle tram rail_urban rail rail_electric rail_fast ship" speed="6.65" length="9.22" shape="7061.33,7728.26 7061.26,7725.80 7062.01,7723.86 7063.60,7722.46 7066.00,7721.58"/>
    </edge>
    <edge id=":1252511599_2" function="internal">
        <lane id=":1252511599_2_0" index="0" disallow="pedestrian bicycle tram rail_urban rail rail_electric rail_fast ship" speed="19.44" length="14.39" shape="7061.33,7728.26 7058.79,7714.09"/>
        <lane id=":1252511599_2_1" index="1" disallow="pedestrian bicycle tram rail_urban rail rail_electric rail_fast ship" speed="19.44" length="14.39" shape="7058.18,7728.82 7055.64,7714.65"/>
        <lane id=":1252511599_2_2" index="2" disallow="pedestrian bicycle tram rail_urban rail rail_electric rail_fast ship" speed="19.44" length="14.39" shape="7055.03,7729.38 7052.49,7715.22"/>
    </edge>
    <edge id=":1252511630_0" function="internal">
        <lane id=":1252511630_0_0" index="0" disallow="pedestrian bicycle tram rail_urban rail rail_electric rail_fast ship" speed="8.22" length="11.09" shape="6987.04,7495.48 6983.66,7495.33 6980.96,7494.54 6978.96,7493.12 6977.65,7491.07"/>
    </edge>
    <edge id=":1252511630_1" function="internal">
        <lane id=":1252511630_1_0" index="0" disallow="pedestrian bicycle tram rail_urban rail rail_electric rail_fast ship" speed="5.88" length="9.11" shape="6983.34,7504.76 6982.66,7502.21 6983.08,7500.34 6984.59,7499.16 6987.19,7498.68"/>
    </edge>
    <edge id=":1252511630_2" function="internal">
        <lane id=":1252511630_2_0" index="0" disallow="pedestrian bicycle tram rail_urban rail rail_electric rail_fast ship" speed="19.44" length="14.87" shape="6983.34,7504.76 6977.65,7491.07"/>
        <lane id=":1252511630_2_1" index="1" disallow="pedestrian bicycle tram rail_urban rail rail_electric rail_fast ship" speed="19.44" length="14.87" shape="6980.39,7506.00 6974.69,7492.27"/>
        <lane id=":1252511630_2_2" index="2" disallow="pedestrian bicycle tram rail_urban rail rail_electric rail_fast ship" speed="19.44" length="14.87" shape="6977.43,7507.24 6971.72,7493.48"/>
    </edge>
    <edge id=":1252511646_0" function="internal">
        <lane id=":1252511646_0_0" index="0" disallow="pedestrian bicycle tram rail_urban rail rail_electric rail_fast ship" speed="6.55" length="8.97" shape="6835.44,7107.55 6833.04,7108.07 6831.03,7107.72 6829.41,7106.49 6828.19,7104.38"/>
    </edge>
    <edge id=":1252511646_1" function="internal">
        <lane id=":1252511646_1_0" index="0" disallow="pedestrian bicycle tram rail_urban rail rail_electric rail_fast ship" speed="6.51" length="8.94" shape="6833.21,7117.67 6832.73,7115.28 6833.13,7113.29 6834.40,7111.72 6836.55,7110.55"/>
    </edge>
    <edge id=":1252511646_2" function="internal">
        <lane id=":1252511646_2_0" index="0" disallow="pedestrian bicycle tram rail_urban rail rail_electric rail_fast ship" speed="19.44" length="14.07" shape="6833.21,7117.67 6828.19,7104.38"/>
        <lane id=":1252511646_2_1" index="1" disallow="pedestrian bicycle tram rail_urban rail rail_electric rail_fast ship" speed="19.44" length="14.07" shape="6830.20,7118.74 6825.22,7105.57"/>
        <lane id=":1252511646_2_2" index="2" disallow="pedestrian bicycle tram rail_urban rail rail_electric rail_fast ship" speed="19.44" length="14.07" shape="6827.18,7119.80 6822.25,7106.77"/>
    </edge>
    <edge id=":1252523305_0" function="internal">
        <lane id=":1252523305_0_0" index="0" disallow="pedestrian bicycle tram rail_urban rail rail_electric rail_fast ship" speed="6.80" length="9.41" shape="6744.59,6879.67 6741.98,6880.14 6739.83,6879.75 6738.12,6878.50 6736.88,6876.38"/>
    </edge>
    <edge id=":1252523305_1" function="internal">
        <lane id=":1252523305_1_0" index="0" disallow="pedestrian bicycle tram rail_urban rail rail_electric rail_fast ship" speed="6.36" length="9.04" shape="6742.24,6889.76 6741.65,6887.33 6742.01,6885.35 6743.31,6883.81 6745.56,6882.72"/>
    </edge>
    <edge id=":1252523305_2" function="internal">
        <lane id=":1252523305_2_0" index="0" disallow="pedestrian bicycle tram rail_urban rail rail_electric rail_fast ship" speed="19.44" length="14.41" shape="6742.24,6889.76 6736.88,6876.38"/>
        <lane id=":1252523305_2_1" index="1" disallow="pedestrian bicycle tram rail_urban rail rail_electric rail_fast ship" speed="19.44" length="14.41" shape="6739.27,6890.95 6733.91,6877.57"/>
        <lane id=":1252523305_2_2" index="2" disallow="pedestrian bicycle tram rail_urban rail rail_electric rail_fast ship" speed="19.44" length="14.41" shape="6736.30,6892.14 6730.94,6878.77"/>
    </edge>
    <edge id=":1278003928_0" function="internal">
        <lane id=":1278003928_0_0" index="0" disallow="pedestrian bicycle tram rail_urban rail rail_electric rail_fast ship" speed="7.42" length="10.08" shape="6620.36,6644.84 6623.31,6644.93 6625.63,6645.71 6627.33,6647.20 6628.41,6649.38"/>
        <lane id=":1278003928_0_1" index="1" disallow="pedestrian bicycle tram rail_urban rail rail_electric rail_fast ship" speed="8.20" length="12.50" shape="6620.36,6644.84 6624.72,6644.77 6628.03,6645.35 6630.27,6646.58 6631.47,6648.45"/>
    </edge>
    <edge id=":1278003928_2" function="internal">
        <lane id=":1278003928_2_0" index="0" disallow="pedestrian bicycle tram rail_urban rail rail_electric rail_fast ship" speed="6.16" length="9.04" shape="6624.50,6635.46 6624.78,6637.99 6624.14,6639.87 6622.58,6641.09 6620.11,6641.65"/>
    </edge>
    <edge id=":1278003928_3" function="internal">
        <lane id=":1278003928_3_0" index="0" disallow="pedestrian bicycle tram rail_urban rail rail_electric rail_fast ship" speed="16.67" length="14.46" shape="6624.50,6635.46 6628.41,6649.38"/>
    </edge>
    <edge id=":1278003928_4" function="internal">
        <lane id=":1278003928_4_0" index="0" disallow="pedestrian bicycle tram rail_urban rail rail_electric rail_fast ship" speed="7.01" length="2.80" shape="6627.59,6634.64 6627.73,6637.43"/>
    </edge>
    <edge id=":1278003928_5" function="internal">
        <lane id=":1278003928_5_0" index="0" disallow="pedestrian bicycle tram rail_urban rail rail_electric rail_fast ship" speed="16.67" length="14.29" shape="6627.59,6634.64 6631.47,6648.45"/>
        <lane id=":1278003928_5_1" index="1" disallow="pedestrian bicycle tram rail_urban rail rail_electric rail_fast ship" speed="16.67" length="14.29" shape="6630.68,6633.82 6634.53,6647.52"/>
    </edge>
    <edge id=":1278003928_7" function="internal">
        <lane id=":1278003928_7_0" index="0" disallow="pedestrian bicycle tram rail_urban rail rail_electric rail_fast ship" speed="7.01" length="9.27" shape="6627.73,6637.43 6626.53,6639.53 6623.99,6640.94 6620.11,6641.65"/>
    </edge>
    <edge id=":1794160016_0" function="internal">
        <lane id=":1794160016_0_0" index="0" disallow="pedestrian bicycle tram rail_urban rail rail_electric rail_fast ship" speed="6.48" length="8.90" shape="5708.96,9898.09 5706.91,9899.23 5704.94,9899.40 5703.05,9898.60 5701.24,9896.84"/>
    </edge>
    <edge id=":1794160016_1" function="internal">
        <lane id=":1794160016_1_0" index="0" disallow="pedestrian bicycle tram rail_urban rail rail_electric rail_fast ship" speed="16.67" length="14.81" shape="5708.96,9898.09 5697.08,9906.93"/>
    </edge>
    <edge id=":1794160016_2" function="internal">
        <lane id=":1794160016_2_0" index="0" disallow="pedestrian bicycle tram rail_urban rail rail_electric rail_fast ship" speed="7.31" length="2.50" shape="5710.92,9900.62 5708.75,9901.59 5708.63,9901.58"/>
    </edge>
    <edge id=":1794160016_3" function="internal">
        <lane id=":1794160016_3_0" index="0" disallow="pedestrian bicycle tram rail_urban rail rail_electric rail_fast ship" speed="16.67" length="15.00" shape="5710.92,9900.62 5698.94,9909.54"/>
        <lane id=":1794160016_3_1" index="1" disallow="pedestrian bicycle tram rail_urban rail rail_electric rail_fast ship" speed="16.67" length="15.00" shape="5712.88,9903.15 5700.80,9912.14"/>
    </edge>
    <edge id=":1794160016_7" function="internal">
        <lane id=":1794160016_7_0" index="0" disallow="pedestrian bicycle tram rail_urban rail rail_electric rail_fast ship" speed="7.31" length="9.11" shape="5708.63,9901.58 5706.41,9901.29 5703.91,9899.70 5701.24,9896.84"/>
    </edge>
    <edge id=":1794160016_5" function="internal">
        <lane id=":1794160016_5_0" index="0" disallow="pedestrian bicycle tram rail_urban rail rail_electric rail_fast ship" speed="6.46" length="9.31" shape="5698.03,9898.94 5699.39,9901.18 5699.68,9903.25 5698.91,9905.17 5697.08,9906.93"/>
        <lane id=":1794160016_5_1" index="1" disallow="pedestrian bicycle tram rail_urban rail rail_electric rail_fast ship" speed="7.28" length="12.12" shape="5698.03,9898.94 5700.26,9902.27 5701.15,9905.14 5700.71,9907.57 5698.94,9909.54"/>
    </edge>
    <edge id=":2036029430_0" function="internal">
        <lane id=":2036029430_0_0" index="0" disallow="pedestrian bicycle tram rail_urban rail rail_electric rail_fast ship" speed="6.23" length="9.05" shape="5521.43,10063.46 5519.67,10065.28 5517.81,10066.00 5515.85,10065.62 5513.79,10064.15"/>
    </edge>
    <edge id=":2036029430_1" function="internal">
        <lane id=":2036029430_1_0" index="0" disallow="pedestrian bicycle tram rail_urban rail rail_electric rail_fast ship" speed="16.67" length="14.47" shape="5521.43,10063.46 5512.90,10075.16"/>
    </edge>
    <edge id=":2036029430_2" function="internal">
        <lane id=":2036029430_2_0" index="0" disallow="pedestrian bicycle tram rail_urban rail rail_electric rail_fast ship" speed="7.07" length="2.73" shape="5524.02,10065.33 5522.00,10067.17"/>
    </edge>
    <edge id=":2036029430_3" function="internal">
        <lane id=":2036029430_3_0" index="0" disallow="pedestrian bicycle tram rail_urban rail rail_electric rail_fast ship" speed="16.67" length="14.51" shape="5524.02,10065.33 5515.48,10077.05"/>
        <lane id=":2036029430_3_1" index="1" disallow="pedestrian bicycle tram rail_urban rail rail_electric rail_fast ship" speed="16.67" length="14.51" shape="5526.61,10067.21 5518.06,10078.95"/>
    </edge>
    <edge id=":2036029430_7" function="internal">
        <lane id=":2036029430_7_0" index="0" disallow="pedestrian bicycle tram rail_urban rail rail_electric rail_fast ship" speed="7.07" length="9.26" shape="5522.00,10067.17 5519.62,10067.59 5516.89,10066.58 5513.79,10064.15"/>
    </edge>
    <edge id=":2036029430_5" function="internal">
        <lane id=":2036029430_5_0" index="0" disallow="pedestrian bicycle tram rail_urban rail rail_electric rail_fast ship" speed="7.07" length="9.76" shape="5511.58,10066.46 5513.36,10068.63 5514.17,10070.81 5514.02,10072.98 5512.90,10075.16"/>
        <lane id=":2036029430_5_1" index="1" disallow="pedestrian bicycle tram rail_urban rail rail_electric rail_fast ship" speed="7.86" length="12.29" shape="5511.58,10066.46 5514.39,10069.59 5515.98,10072.40 5516.35,10074.89 5515.48,10077.05"/>
    </edge>
    <edge id=":2079110184_0" function="internal">
        <lane id=":2079110184_0_0" index="0" disallow="pedestrian bicycle tram rail_urban rail rail_electric rail_fast ship" speed="6.94" length="9.54" shape="6566.84,6088.11 6564.13,6088.26 6561.98,6087.63 6560.37,6086.21 6559.32,6084.00"/>
    </edge>
    <edge id=":2079110184_1" function="internal">
        <lane id=":2079110184_1_0" index="0" disallow="pedestrian bicycle tram rail_urban rail rail_electric rail_fast ship" speed="6.33" length="9.04" shape="6563.27,6097.83 6562.96,6095.34 6563.55,6093.42 6565.03,6092.06 6567.41,6091.26"/>
    </edge>
    <edge id=":2079110184_2" function="internal">
        <lane id=":2079110184_2_0" index="0" disallow="pedestrian bicycle tram rail_urban rail rail_electric rail_fast ship" speed="19.44" length="14.30" shape="6563.27,6097.83 6559.32,6084.00"/>
        <lane id=":2079110184_2_1" index="1" disallow="pedestrian bicycle tram rail_urban rail rail_electric rail_fast ship" speed="19.44" length="14.30" shape="6560.18,6098.67 6556.25,6084.92"/>
        <lane id=":2079110184_2_2" index="2" disallow="pedestrian bicycle tram rail_urban rail rail_electric rail_fast ship" speed="19.44" length="14.30" shape="6557.10,6099.52 6553.19,6085.84"/>
    </edge>
    <edge id=":2361900654_0" function="internal">
        <lane id=":2361900654_0_0" index="0" disallow="pedestrian bicycle tram rail_urban rail rail_electric rail_fast ship" speed="6.50" length="9.03" shape="6948.75,7490.08 6951.14,7489.45 6953.16,7489.74 6954.80,7490.95 6956.07,7493.08"/>
        <lane id=":2361900654_0_1" index="1" disallow="pedestrian bicycle tram rail_urban rail rail_electric rail_fast ship" speed="7.32" length="11.73" shape="6948.75,7490.08 6952.43,7488.90 6955.37,7488.81 6957.57,7489.79 6959.02,7491.85"/>
    </edge>
    <edge id=":2361900654_2" function="internal">
        <lane id=":2361900654_2_0" index="0" disallow="pedestrian bicycle tram rail_urban rail rail_electric rail_fast ship" speed="6.60" length="9.12" shape="6950.72,7479.75 6951.27,7482.15 6950.92,7484.18 6949.66,7485.84 6947.50,7487.13"/>
    </edge>
    <edge id=":2361900654_3" function="internal">
        <lane id=":2361900654_3_0" index="0" disallow="pedestrian bicycle tram rail_urban rail rail_electric rail_fast ship" speed="16.67" length="14.36" shape="6950.72,7479.75 6956.07,7493.08"/>
    </edge>
    <edge id=":2361900654_4" function="internal">
        <lane id=":2361900654_4_0" index="0" disallow="pedestrian bicycle tram rail_urban rail rail_electric rail_fast ship" speed="7.42" length="2.47" shape="6953.71,7478.60 6954.06,7481.04"/>
    </edge>
    <edge id=":2361900654_5" function="internal">
        <lane id=":2361900654_5_0" index="0" disallow="pedestrian bicycle tram rail_urban rail rail_electric rail_fast ship" speed="16.67" length="14.24" shape="6953.71,7478.60 6959.02,7491.85"/>
        <lane id=":2361900654_5_1" index="1" disallow="pedestrian bicycle tram rail_urban rail rail_electric rail_fast ship" speed="16.67" length="14.24" shape="6956.69,7477.44 6961.98,7490.62"/>
    </edge>
    <edge id=":2361900654_7" function="internal">
        <lane id=":2361900654_7_0" index="0" disallow="pedestrian bicycle tram rail_urban rail rail_electric rail_fast ship" speed="7.42" length="9.30" shape="6954.06,7481.04 6953.14,7483.27 6950.96,7485.30 6947.50,7487.13"/>
    </edge>
    <edge id=":325909789_0" function="internal">
        <lane id=":325909789_0_0" index="0" disallow="pedestrian bicycle tram rail_urban rail rail_electric rail_fast ship" speed="7.65" length="10.40" shape="6996.01,8367.24 6993.65,8365.25 6992.22,8363.12 6991.72,8360.86 6992.15,8358.46"/>
    </edge>
    <edge id=":325909789_1" function="internal">
        <lane id=":325909789_1_0" index="0" disallow="pedestrian bicycle tram rail_urban rail rail_electric rail_fast ship" speed="6.05" length="9.07" shape="6987.09,8372.13 6988.33,8369.87 6989.93,8368.74 6991.89,8368.75 6994.20,8369.88"/>
    </edge>
    <edge id=":325909789_2" function="internal">
        <lane id=":325909789_2_0" index="0" disallow="pedestrian bicycle tram rail_urban rail rail_electric rail_fast ship" speed="19.44" length="14.54" shape="6987.09,8372.13 6992.15,8358.46"/>
        <lane id=":325909789_2_1" index="1" disallow="pedestrian bicycle tram rail_urban rail rail_electric rail_fast ship" speed="19.44" length="14.54" shape="6984.10,8371.01 6989.14,8357.37"/>
        <lane id=":325909789_2_2" index="2" disallow="pedestrian bicycle tram rail_urban rail rail_electric rail_fast ship" speed="19.44" length="14.54" shape="6981.10,8369.89 6986.13,8356.28"/>
    </edge>
    <edge id=":3448778695_0" function="internal">
        <lane id=":3448778695_0_0" index="0" disallow="tram rail_urban rail rail_electric rail_fast ship" speed="16.67" length="14.68" shape="6453.32,5787.17 6455.69,5801.68"/>
        <lane id=":3448778695_0_1" index="1" disallow="tram rail_urban rail rail_electric rail_fast ship" speed="16.67" length="14.68" shape="6456.49,5786.72 6458.85,5801.20"/>
        <lane id=":3448778695_0_2" index="2" disallow="tram rail_urban rail rail_electric rail_fast ship" speed="16.67" length="14.68" shape="6459.66,5786.27 6462.02,5800.73"/>
    </edge>
    <edge id=":3448778695_3" function="internal">
        <lane id=":3448778695_3_0" index="0" disallow="tram rail_urban rail rail_electric rail_fast ship" speed="8.41" length="18.42" shape="6459.66,5786.27 6461.21,5790.67 6464.10,5793.10 6468.31,5793.56 6473.85,5792.04"/>
    </edge>
    <edge id=":3448778696_0" function="internal">
        <lane id=":3448778696_0_0" index="0" disallow="pedestrian bicycle tram rail_urban rail rail_electric rail_fast ship" speed="19.44" length="47.53" shape="6494.57,5906.86 6490.45,5895.24 6486.45,5882.60 6483.04,5870.75 6480.71,5861.52"/>
        <lane id=":3448778696_0_1" index="1" disallow="pedestrian bicycle tram rail_urban rail rail_electric rail_fast ship" speed="19.44" length="47.53" shape="6494.57,5906.86 6489.97,5895.38 6484.90,5883.03 6480.44,5871.48 6477.63,5862.39"/>
    </edge>
    <edge id=":3448778696_2" function="internal">
        <lane id=":3448778696_2_0" index="0" disallow="pedestrian bicycle tram rail_urban rail rail_electric rail_fast ship" speed="19.44" length="47.51" shape="6494.57,5906.86 6489.99,5896.12 6484.64,5885.14 6479.05,5874.27 6473.75,5863.85"/>
        <lane id=":3448778696_2_1" index="1" disallow="pedestrian bicycle tram rail_urban rail rail_electric rail_fast ship" speed="19.44" length="47.51" shape="6491.58,5908.01 6487.02,5897.31 6481.72,5886.42 6476.17,5875.65 6470.88,5865.27"/>
        <lane id=":3448778696_2_2" index="2" disallow="pedestrian bicycle tram rail_urban rail rail_electric rail_fast ship" speed="19.44" length="47.51" shape="6488.59,5909.15 6484.05,5898.50 6478.79,5887.71 6473.28,5877.02 6468.01,5866.69"/>
    </edge>
    <edge id=":3472646714_0" function="internal">
        <lane id=":3472646714_0_0" index="0" disallow="pedestrian bicycle tram rail_urban rail rail_electric rail_fast ship" speed="7.21" length="9.89" shape="6610.44,6569.09 6613.26,6569.57 6615.37,6570.67 6616.75,6572.39 6617.42,6574.74"/>
        <lane id=":3472646714_0_1" index="1" disallow="pedestrian bicycle tram rail_urban rail rail_electric rail_fast ship" speed="7.99" length="12.37" shape="6610.44,6569.09 6614.67,6569.61 6617.78,6570.66 6619.75,6572.25 6620.59,6574.37"/>
    </edge>
    <edge id=":3472646714_2" function="internal">
        <lane id=":3472646714_2_0" index="0" disallow="pedestrian bicycle tram rail_urban rail rail_electric rail_fast ship" speed="6.20" length="9.05" shape="6615.85,6560.36 6615.75,6562.89 6614.84,6564.66 6613.12,6565.66 6610.60,6565.90"/>
    </edge>
    <edge id=":3472646714_3" function="internal">
        <lane id=":3472646714_3_0" index="0" disallow="pedestrian bicycle tram rail_urban rail rail_electric rail_fast ship" speed="16.67" length="14.46" shape="6615.85,6560.36 6617.42,6574.74"/>
    </edge>
    <edge id=":3472646714_4" function="internal">
        <lane id=":3472646714_4_0" index="0" disallow="pedestrian bicycle tram rail_urban rail rail_electric rail_fast ship" speed="7.04" length="2.76" shape="6619.04,6560.03 6618.76,6562.77"/>
    </edge>
    <edge id=":3472646714_5" function="internal">
        <lane id=":3472646714_5_0" index="0" disallow="pedestrian bicycle tram rail_urban rail rail_electric rail_fast ship" speed="16.67" length="14.41" shape="6619.04,6560.03 6620.59,6574.37"/>
        <lane id=":3472646714_5_1" index="1" disallow="pedestrian bicycle tram rail_urban rail rail_electric rail_fast ship" speed="16.67" length="14.41" shape="6622.22,6559.70 6623.77,6574.01"/>
    </edge>
    <edge id=":3472646714_7" function="internal">
        <lane id=":3472646714_7_0" index="0" disallow="pedestrian bicycle tram rail_urban rail rail_electric rail_fast ship" speed="7.04" length="9.27" shape="6618.76,6562.77 6617.26,6564.66 6614.54,6565.70 6610.60,6565.90"/>
    </edge>
    <edge id=":3751159069_0" function="internal">
        <lane id=":3751159069_0_0" index="0" disallow="pedestrian bicycle tram rail_urban rail rail_electric rail_fast ship" speed="6.82" length="9.40" shape="6604.49,6508.00 6607.12,6508.28 6609.08,6509.26 6610.36,6510.94 6610.98,6513.31"/>
        <lane id=":3751159069_0_1" index="1" disallow="pedestrian bicycle tram rail_urban rail rail_electric rail_fast ship" speed="7.62" length="11.98" shape="6604.49,6508.00 6608.52,6508.23 6611.48,6509.14 6613.36,6510.73 6614.16,6512.98"/>
    </edge>
    <edge id=":3751159069_2" function="internal">
        <lane id=":3751159069_2_0" index="0" disallow="pedestrian bicycle tram rail_urban rail rail_electric rail_fast ship" speed="6.38" length="9.04" shape="6609.64,6498.99 6609.50,6501.49 6608.58,6503.28 6606.88,6504.39 6604.42,6504.80"/>
    </edge>
    <edge id=":3751159069_3" function="internal">
        <lane id=":3751159069_3_0" index="0" disallow="pedestrian bicycle tram rail_urban rail rail_electric rail_fast ship" speed="16.67" length="14.38" shape="6609.64,6498.99 6610.98,6513.31"/>
    </edge>
    <edge id=":3751159069_4" function="internal">
        <lane id=":3751159069_4_0" index="0" disallow="pedestrian bicycle tram rail_urban rail rail_electric rail_fast ship" speed="7.20" length="2.61" shape="6612.83,6498.72 6612.49,6501.31"/>
    </edge>
    <edge id=":3751159069_5" function="internal">
        <lane id=":3751159069_5_0" index="0" disallow="pedestrian bicycle tram rail_urban rail rail_electric rail_fast ship" speed="16.67" length="14.29" shape="6612.83,6498.72 6614.16,6512.98"/>
        <lane id=":3751159069_5_1" index="1" disallow="pedestrian bicycle tram rail_urban rail rail_electric rail_fast ship" speed="16.67" length="14.29" shape="6616.02,6498.46 6617.35,6512.65"/>
    </edge>
    <edge id=":3751159069_7" function="internal">
        <lane id=":3751159069_7_0" index="0" disallow="pedestrian bicycle tram rail_urban rail rail_electric rail_fast ship" speed="7.20" length="9.23" shape="6612.49,6501.31 6610.98,6503.18 6608.29,6504.35 6604.42,6504.80"/>
    </edge>
    <edge id=":3751159085_0" function="internal">
        <lane id=":3751159085_0_0" index="0" disallow="pedestrian bicycle tram rail_urban rail rail_electric rail_fast ship" speed="7.52" length="10.30" shape="6591.84,6373.26 6594.86,6373.74 6597.13,6374.83 6598.68,6376.52 6599.49,6378.82"/>
        <lane id=":3751159085_0_1" index="1" disallow="pedestrian bicycle tram rail_urban rail rail_electric rail_fast ship" speed="8.29" length="12.71" shape="6591.84,6373.26 6596.28,6373.77 6599.56,6374.78 6601.68,6376.28 6602.64,6378.28"/>
    </edge>
    <edge id=":3751159085_2" function="internal">