<?xml version="1.0" encoding="UTF-8"?>

<!-- generated on 2024-08-10 12:36:16.879644 by randomTrips.py v1_20_0+0002-343658e7c64
<configuration>
    <net-file value="network/colombo_galleroad.net.xml"/>
    <route-file value="intermediate_output/whitelist_6am_7am.rou.xml"/>
    <speed-exponent value="4.0"/>
    <fringe-factor value="200"/>
    <seed value="12345"/>
    <min-distance value="150.0"/>
    <max-distance value="5000.0"/>
    <validate value="True"/>
    <period value="0.1"/>
</configuration>
-->

<!-- generated on 2024-08-10 12:36:15 by Eclipse SUMO duarouter Version 1.20.0
<configuration xmlns:xsi="http://www.w3.org/2001/XMLSchema-instance" xsi:noNamespaceSchemaLocation="http://sumo.dlr.de/xsd/duarouterConfiguration.xsd">

    <input>
        <net-file value="network/colombo_galleroad.net.xml"/>
        <route-files value="trips.trips.xml"/>
    </input>

    <output>
        <output-file value="trips.trips.xml.tmp"/>
        <alternatives-output value="NUL"/>
        <write-trips value="true"/>
    </output>

    <time>
        <begin value="0"/>
        <end value="3600.0"/>
    </time>

    <report>
        <no-warnings value="true"/>
        <ignore-errors value="true"/>
        <no-step-log value="true"/>
    </report>

</configuration>
-->

<routes xmlns:xsi="http://www.w3.org/2001/XMLSchema-instance" xsi:noNamespaceSchemaLocation="http://sumo.dlr.de/xsd/routes_file.xsd">
    <trip id="1" depart="0.10" from="758636098#2" to="19811337#1"/>
    <trip id="2" depart="0.20" from="758636098#2" to="19811337#1"/>
    <trip id="3" depart="0.30" from="gneE5" to="102651364#23.9"/>
    <trip id="4" depart="0.40" from="gneE5" to="199382582#0"/>
    <trip id="5" depart="0.50" from="758636098#2" to="19811337#1"/>
    <trip id="6" depart="0.60" from="51086283#3" to="OR_O_014"/>
    <trip id="7" depart="0.70" from="gneE5" to="337818184#1"/>
    <trip id="8" depart="0.80" from="-19811337#1" to="OP_gneE5"/>
    <trip id="10" depart="1.00" from="51086283#3" to="OP_gneE5"/>
    <trip id="11" depart="1.10" from="758636098#2" to="337818184#1"/>
    <trip id="13" depart="1.30" from="758636098#2" to="758636098#3"/>
    <trip id="14" depart="1.40" from="920870624#1" to="199382582#0"/>
    <trip id="15" depart="1.50" from="OR_I_010" to="19811337#1"/>
    <trip id="16" depart="1.60" from="758636098#4" to="337818184#1"/>
    <trip id="19" depart="1.90" from="gneE5" to="920870624#1"/>
    <trip id="20" depart="2.00" from="758636098#2" to="19811337#1"/>
    <trip id="21" depart="2.10" from="758636098#2" to="337818184#1"/>
    <trip id="23" depart="2.30" from="-19811337#1" to="337818184#1"/>
    <trip id="25" depart="2.50" from="51086283#3" to="OR_O_006"/>
    <trip id="27" depart="2.70" from="758636098#2" to="337818184#1"/>
    <trip id="28" depart="2.80" from="gneE5" to="199382582#0"/>
    <trip id="29" depart="2.90" from="758636098#2" to="337818184#1"/>
    <trip id="30" depart="3.00" from="-19811337#1" to="102650983#0"/>
    <trip id="31" depart="3.10" from="758636098#2" to="19811337#1"/>
    <trip id="32" depart="3.20" from="758636098#2" to="51133939#3"/>
    <trip id="35" depart="3.50" from="gneE5" to="199382582#0"/>
    <trip id="36" depart="3.60" from="112446385#5" to="OP_gneE5"/>
    <trip id="37" depart="3.70" from="758636098#2" to="337818184#1"/>
    <trip id="39" depart="3.90" from="OR_I_020" to="199382582#0"/>
    <trip id="41" depart="4.10" from="758636098#2" to="337818184#1"/>
    <trip id="42" depart="4.20" from="758636098#22" to="199382582#0"/>
    <trip id="43" depart="4.30" from="51086283#3" to="199382582#0"/>
    <trip id="44" depart="4.40" from="758636098#2" to="337818184#1"/>
    <trip id="46" depart="4.60" from="-19811337#1" to="337818184#1"/>
    <trip id="47" depart="4.70" from="51133939#17" to="199382582#0"/>
    <trip id="48" depart="4.80" from="51086283#3" to="OP_gneE5"/>
    <trip id="49" depart="4.90" from="758636098#2" to="337818184#1"/>
    <trip id="50" depart="5.00" from="gneE5" to="102651364#23.9"/>
    <trip id="51" depart="5.10" from="758636098#2" to="19811337#1"/>
    <trip id="52" depart="5.20" from="51086283#3" to="OP_gneE5"/>
    <trip id="57" depart="5.70" from="51086283#3" to="OR_O_019"/>
    <trip id="58" depart="5.80" from="51086283#3" to="CR_MP_025"/>
    <trip id="60" depart="6.00" from="758636098#2" to="337818184#1"/>
    <trip id="62" depart="6.20" from="758636098#2" to="337818184#1"/>
    <trip id="63" depart="6.30" from="758636098#2" to="19811337#1"/>
    <trip id="69" depart="6.90" from="-19811337#1" to="102651364#23.9"/>
    <trip id="70" depart="7.00" from="gneE5" to="102651364#23.9"/>
    <trip id="71" depart="7.10" from="112446385#5" to="OP_gneE5"/>
    <trip id="74" depart="7.40" from="112446385#5" to="OR_O_028"/>
    <trip id="76" depart="7.60" from="gneE5" to="337818184#1"/>
    <trip id="78" depart="7.80" from="CR_MP_042" to="102651364#23.9"/>
    <trip id="80" depart="8.00" from="758636098#2" to="337818184#1"/>
    <trip id="81" depart="8.10" from="112446385#5" to="OR_O_021"/>
    <trip id="82" depart="8.20" from="758636098#2" to="337818184#1"/>
    <trip id="83" depart="8.30" from="758636098#2" to="337818184#1"/>
    <trip id="84" depart="8.40" from="OR_I_006" to="OP_gneE5"/>
    <trip id="86" depart="8.60" from="51086283#3" to="199382582#0"/>
    <trip id="89" depart="8.90" from="gneE5" to="199382582#0"/>
    <trip id="90" depart="9.00" from="758636098#2" to="337818184#1"/>
    <trip id="91" depart="9.10" from="758636098#22" to="337818184#1"/>
    <trip id="92" depart="9.20" from="758636098#2" to="337818184#1"/>
    <trip id="93" depart="9.30" from="-19811337#1" to="OP_gneE5"/>
    <trip id="97" depart="9.70" from="758636098#2" to="51133939#12"/>
    <trip id="99" depart="9.90" from="51086283#3" to="199382582#0"/>
    <trip id="100" depart="10.00" from="758636098#2" to="337818184#1"/>
    <trip id="101" depart="10.10" from="920870625#0" to="337818184#1"/>
    <trip id="102" depart="10.20" from="gneE5" to="199382582#0"/>
    <trip id="103" depart="10.30" from="758636098#2" to="337818184#1"/>
    <trip id="104" depart="10.40" from="gneE5" to="337818184#1"/>
    <trip id="105" depart="10.50" from="OR_I_031" to="19811337#1"/>
    <trip id="107" depart="10.70" from="758636098#2" to="758636098#8"/>
    <trip id="108" depart="10.80" from="51086283#3" to="199382582#0"/>
    <trip id="109" depart="10.90" from="51086283#3" to="199382582#0"/>
    <trip id="110" depart="11.00" from="758636098#2" to="337818184#1"/>
    <trip id="112" depart="11.20" from="758636098#2" to="112446384#1"/>
    <trip id="113" depart="11.30" from="758636098#2" to="OP_gneE5"/>
    <trip id="114" depart="11.40" from="51086283#3" to="199382582#0"/>
    <trip id="115" depart="11.50" from="51086283#3" to="199382582#0"/>
    <trip id="118" depart="11.80" from="758636098#2" to="OP_gneE5"/>
    <trip id="121" depart="12.10" from="gneE5" to="19811337#1"/>
    <trip id="124" depart="12.40" from="-19811337#1" to="337818184#1"/>
    <trip id="125" depart="12.50" from="758636098#2" to="337818184#1"/>
    <trip id="126" depart="12.60" from="-19811337#1" to="337818184#1"/>
    <trip id="127" depart="12.70" from="758636098#2" to="337818184#1"/>
    <trip id="129" depart="12.90" from="gneE5" to="199382582#0"/>
    <trip id="131" depart="13.10" from="51086283#3" to="CR_MP_021"/>
    <trip id="132" depart="13.20" from="gneE5" to="102651364#23.9"/>
    <trip id="133" depart="13.30" from="gneE5" to="669189459"/>
    <trip id="136" depart="13.60" from="758636098#2" to="337818184#1"/>
    <trip id="137" depart="13.70" from="758636098#2" to="337818184#1"/>
    <trip id="138" depart="13.80" from="-19811337#1" to="51133939#9"/>
    <trip id="139" depart="13.90" from="51086283#3" to="OP_gneE5"/>
    <trip id="140" depart="14.00" from="758636098#15" to="337818184#1"/>
    <trip id="141" depart="14.10" from="-19811337#1" to="102651364#23.9"/>
    <trip id="142" depart="14.20" from="OR_I_023" to="102651364#23.9"/>
    <trip id="143" depart="14.30" from="758636098#2" to="337818184#1"/>
    <trip id="144" depart="14.40" from="758636098#2" to="OP_gneE5"/>
    <trip id="146" depart="14.60" from="112446385#5" to="OP_gneE5"/>
    <trip id="147" depart="14.70" from="758636098#2" to="19811337#1"/>
    <trip id="149" depart="14.90" from="758636098#2" to="337818184#1"/>
    <trip id="150" depart="15.00" from="758636098#21" to="199382582#0"/>
    <trip id="151" depart="15.10" from="gneE5" to="337818184#1"/>
    <trip id="153" depart="15.30" from="758636098#2" to="51133939#8"/>
    <trip id="154" depart="15.40" from="758636098#2" to="337818184#1"/>
    <trip id="155" depart="15.50" from="51086283#3" to="199382582#0"/>
    <trip id="156" depart="15.60" from="758636098#8" to="337818184#1"/>
    <trip id="157" depart="15.70" from="758636098#2" to="337818184#1"/>
    <trip id="158" depart="15.80" from="758636098#2" to="337818184#1"/>
    <trip id="159" depart="15.90" from="351910071" to="199382582#0"/>
    <trip id="160" depart="16.00" from="51086283#3" to="199382582#0"/>
    <trip id="162" depart="16.20" from="758636098#17" to="337818184#1"/>
    <trip id="168" depart="16.80" from="CR_MP_017" to="102651364#23.9"/>
    <trip id="172" depart="17.20" from="CR_MP_033" to="102651364#23.9"/>
    <trip id="173" depart="17.30" from="758636098#2" to="19811337#1"/>
    <trip id="176" depart="17.60" from="51086283#3" to="199382582#0"/>
    <trip id="177" depart="17.70" from="758636098#2" to="337818184#1"/>
    <trip id="179" depart="17.90" from="gneE5" to="199382582#0"/>
    <trip id="180" depart="18.00" from="gneE5" to="199382582#0"/>
    <trip id="182" depart="18.20" from="51086283#3" to="199382582#0"/>
    <trip id="183" depart="18.30" from="758636098#2" to="337818184#1"/>
    <trip id="184" depart="18.40" from="-19811337#1" to="102651364#23.9"/>
    <trip id="185" depart="18.50" from="51086283#3" to="OP_gneE5"/>
    <trip id="186" depart="18.60" from="-19811337#1" to="337818184#1"/>
    <trip id="187" depart="18.70" from="51086283#3" to="199382582#0"/>
    <trip id="188" depart="18.80" from="51086283#3" to="199382582#0"/>
    <trip id="189" depart="18.90" from="758636098#2" to="OP_gneE5"/>
    <trip id="190" depart="19.00" from="OR_I_026" to="199382582#0"/>
    <trip id="191" depart="19.10" from="-19811337#1" to="337818184#1"/>
    <trip id="192" depart="19.20" from="51133939#7" to="337818184#1"/>
    <trip id="193" depart="19.30" from="758636098#2" to="758636098#11"/>
    <trip id="194" depart="19.40" from="gneE5" to="337818184#1"/>
    <trip id="197" depart="19.70" from="375040082" to="199382582#0"/>
    <trip id="198" depart="19.80" from="-19811337#1" to="51086286#1"/>
    <trip id="199" depart="19.90" from="758636098#2" to="337818184#1"/>
    <trip id="200" depart="20.00" from="51086283#3" to="199382582#0"/>
    <trip id="201" depart="20.10" from="gneE5" to="51133939#18"/>
    <trip id="202" depart="20.20" from="758636098#2" to="337818184#1"/>
    <trip id="203" depart="20.30" from="112446385#5" to="CR_MP_028"/>
    <trip id="205" depart="20.50" from="758636098#2" to="337818184#1"/>
    <trip id="208" depart="20.80" from="gneE5" to="102651364#23.9"/>
    <trip id="210" depart="21.00" from="758636098#2" to="337818184#1"/>
    <trip id="212" depart="21.20" from="758636098#2" to="19811337#1"/>
    <trip id="213" depart="21.30" from="-19811337#1" to="337818184#1"/>
    <trip id="214" depart="21.40" from="gneE5" to="337818184#1"/>
    <trip id="215" depart="21.50" from="112446385#5" to="OP_gneE5"/>
    <trip id="216" depart="21.60" from="51086283#3" to="199382582#0"/>
    <trip id="223" depart="22.30" from="51086283#3" to="199382582#0"/>
    <trip id="224" depart="22.40" from="gneE5" to="199382582#0"/>
    <trip id="225" depart="22.50" from="51086283#3" to="199382582#0"/>
    <trip id="227" depart="22.70" from="758636098#2" to="337818184#1"/>
    <trip id="228" depart="22.80" from="112446385#5" to="OR_O_018"/>
    <trip id="229" depart="22.90" from="gneE5" to="199382582#0"/>
    <trip id="230" depart="23.00" from="51086283#3" to="351910071"/>
    <trip id="231" depart="23.10" from="758636098#2" to="337818184#1"/>
    <trip id="232" depart="23.20" from="758636098#2" to="337818184#1"/>
    <trip id="233" depart="23.30" from="51086283#3" to="199382582#0"/>
    <trip id="237" depart="23.70" from="758636098#2" to="337818184#1"/>
    <trip id="238" depart="23.80" from="gneE5" to="337818184#1"/>
    <trip id="240" depart="24.00" from="758636098#2" to="OP_gneE5"/>
    <trip id="241" depart="24.10" from="758636098#2" to="337818184#1"/>
    <trip id="242" depart="24.20" from="758636098#2" to="51133939#6"/>
    <trip id="244" depart="24.40" from="758636098#2" to="337818184#1"/>
    <trip id="246" depart="24.60" from="OR_I_017" to="CR_MP_041"/>
    <trip id="247" depart="24.70" from="gneE5" to="19811337#1"/>
    <trip id="249" depart="24.90" from="112446385#5" to="OP_gneE5"/>
    <trip id="250" depart="25.00" from="gneE5" to="OR_O_017"/>
    <trip id="251" depart="25.10" from="gneE5" to="337818184#1"/>
    <trip id="252" depart="25.20" from="gneE5" to="337818184#1"/>
    <trip id="253" depart="25.30" from="gneE5" to="337818184#1"/>
    <trip id="254" depart="25.40" from="CR_MP_008" to="OP_gneE5"/>
    <trip id="255" depart="25.50" from="51086283#3" to="OP_gneE5"/>
    <trip id="256" depart="25.60" from="51086283#3" to="OR_O_010"/>
    <trip id="257" depart="25.70" from="758636098#2" to="337818184#1"/>
    <trip id="258" depart="25.80" from="51086283#3" to="199382582#0"/>
    <trip id="259" depart="25.90" from="OR_I_004" to="19811337#1"/>
    <trip id="260" depart="26.00" from="758636098#2" to="OR_O_027"/>
    <trip id="261" depart="26.10" from="-19811337#1" to="337818184#1"/>
    <trip id="262" depart="26.20" from="51086283#3" to="OP_gneE5"/>
    <trip id="263" depart="26.30" from="OR_I_012" to="102651364#23.9"/>
    <trip id="264" depart="26.40" from="51086283#3" to="OR_O_031"/>
    <trip id="265" depart="26.50" from="OR_I_013" to="102651364#23.9"/>
    <trip id="267" depart="26.70" from="758636098#2" to="OP_gneE5"/>
    <trip id="268" depart="26.80" from="OR_I_021" to="19811337#1"/>
    <trip id="269" depart="26.90" from="758636098#2" to="337818184#1"/>
    <trip id="271" depart="27.10" from="758636098#2" to="337818184#1"/>
    <trip id="272" depart="27.20" from="758636098#2" to="920870625#1"/>
    <trip id="274" depart="27.40" from="51086283#3" to="199382582#0"/>
    <trip id="276" depart="27.60" from="51086283#3" to="OP_gneE5"/>
    <trip id="277" depart="27.70" from="758636098#2" to="337818184#1"/>
    <trip id="278" depart="27.80" from="-19811337#1" to="102651364#23.9"/>
    <trip id="279" depart="27.90" from="-19811337#1" to="337818184#1"/>
    <trip id="280" depart="28.00" from="51086283#3" to="199382582#0"/>
    <trip id="281" depart="28.10" from="758636098#2" to="102650983#0"/>
    <trip id="282" depart="28.20" from="OR_I_006" to="19811337#1"/>
    <trip id="283" depart="28.30" from="758636098#2" to="51133939#15"/>
    <trip id="285" depart="28.50" from="OR_I_020" to="102651364#23.9"/>
    <trip id="287" depart="28.70" from="OR_I_009" to="OR_O_029"/>
    <trip id="288" depart="28.80" from="758636098#2" to="337818184#1"/>
    <trip id="289" depart="28.90" from="OR_I_006" to="102651364#23.9"/>
    <trip id="290" depart="29.00" from="51086283#3" to="199382582#0"/>
    <trip id="293" depart="29.30" from="-19811337#1" to="102651364#23.9"/>
    <trip id="295" depart="29.50" from="102650983#0" to="337818184#1"/>
    <trip id="296" depart="29.60" from="-19811337#1" to="337818184#1"/>
    <trip id="298" depart="29.80" from="758636098#2" to="337818184#1"/>
    <trip id="299" depart="29.90" from="-19811337#1" to="102651364#23.9"/>
    <trip id="300" depart="30.00" from="51086283#3" to="OP_gneE5"/>
    <trip id="301" depart="30.10" from="51133939#9" to="199382582#0"/>
    <trip id="302" depart="30.20" from="758636098#13" to="758636098#19"/>
    <trip id="303" depart="30.30" from="gneE5" to="199382582#0"/>
    <trip id="304" depart="30.40" from="51133939#12" to="199382582#0"/>
    <trip id="305" depart="30.50" from="112446385#5" to="CR_MP_033"/>
    <trip id="306" depart="30.60" from="758636098#7" to="199382582#0"/>
    <trip id="307" depart="30.70" from="758636098#2" to="OP_gneE5"/>
    <trip id="308" depart="30.80" from="51086283#3" to="OR_O_021"/>
    <trip id="309" depart="30.90" from="112446385#5" to="CR_MP_001"/>
    <trip id="310" depart="31.00" from="51086283#3" to="199382582#0"/>
    <trip id="312" depart="31.20" from="758636098#2" to="51133939#10"/>
    <trip id="313" depart="31.30" from="51086283#3" to="199382582#0"/>
    <trip id="314" depart="31.40" from="758636098#2" to="19811337#1"/>
    <trip id="315" depart="31.50" from="112446385#5" to="CR_MP_017"/>
    <trip id="317" depart="31.70" from="gneE5" to="51133939#10"/>
    <trip id="318" depart="31.80" from="51133939#12" to="337818184#1"/>
    <trip id="320" depart="32.00" from="758636098#2" to="OP_gneE5"/>
    <trip id="321" depart="32.10" from="758636098#2" to="19811337#1"/>
    <trip id="323" depart="32.30" from="51086283#3" to="199382582#0"/>
    <trip id="324" depart="32.40" from="gneE5" to="337818184#1"/>
    <trip id="325" depart="32.50" from="gneE5" to="102651364#23.9"/>
    <trip id="327" depart="32.70" from="OR_I_008" to="OR_O_020"/>
    <trip id="328" depart="32.80" from="758636098#2" to="337818184#1"/>
    <trip id="329" depart="32.90" from="51086283#3" to="OP_gneE5"/>
    <trip id="330" depart="33.00" from="-19811337#1" to="102651364#23.9"/>
    <trip id="333" depart="33.30" from="758636098#2" to="OP_gneE5"/>
    <trip id="334" depart="33.40" from="51086283#3" to="199382582#0"/>
    <trip id="335" depart="33.50" from="-19811337#1" to="337818184#1"/>
    <trip id="337" depart="33.70" from="51086286#2" to="199382582#0"/>
    <trip id="338" depart="33.80" from="-19811337#1" to="758636098#15"/>
    <trip id="339" depart="33.90" from="-19811337#1" to="337818184#1"/>
    <trip id="340" depart="34.00" from="51086283#3" to="199382582#0"/>
    <trip id="341" depart="34.10" from="CR_MP_028" to="19811337#1"/>
    <trip id="342" depart="34.20" from="758636098#2" to="337818184#1"/>
    <trip id="343" depart="34.30" from="758636098#2" to="337818184#1"/>
    <trip id="347" depart="34.70" from="758636098#2" to="OR_O_019"/>
    <trip id="348" depart="34.80" from="-19811337#1" to="337818184#1"/>
    <trip id="349" depart="34.90" from="gneE5" to="102651364#23.9"/>
    <trip id="350" depart="35.00" from="758636098#2" to="OP_gneE5"/>
    <trip id="351" depart="35.10" from="351910071" to="19811337#1"/>
    <trip id="352" depart="35.20" from="758636098#2" to="51133939#17"/>
    <trip id="353" depart="35.30" from="gneE5" to="337818184#1"/>
    <trip id="354" depart="35.40" from="-19811337#1" to="758636098#20"/>
    <trip id="356" depart="35.60" from="758636098#2" to="OR_O_020"/>
    <trip id="357" depart="35.70" from="758636098#2" to="337818184#1"/>
    <trip id="358" depart="35.80" from="758636098#2" to="19811337#1"/>
    <trip id="359" depart="35.90" from="gneE5" to="102651364#23.9"/>
    <trip id="360" depart="36.00" from="758636098#2" to="19811337#1"/>
    <trip id="361" depart="36.10" from="51086283#3" to="199382582#0"/>
    <trip id="362" depart="36.20" from="51086283#3" to="199382582#0"/>
    <trip id="363" depart="36.30" from="gneE5" to="19811337#1"/>
    <trip id="365" depart="36.50" from="CR_MP_020" to="102651364#23.9"/>
    <trip id="366" depart="36.60" from="51133939#10" to="337818184#1"/>
    <trip id="367" depart="36.70" from="758636098#2" to="337818184#1"/>
    <trip id="368" depart="36.80" from="112446385#5" to="OP_gneE5"/>
    <trip id="369" depart="36.90" from="758636098#2" to="337818184#1"/>
    <trip id="370" depart="37.00" from="758636098#2" to="19811337#1"/>
    <trip id="372" depart="37.20" from="CR_MP_015" to="19811337#1"/>
    <trip id="374" depart="37.40" from="758636098#2" to="337818184#1"/>
    <trip id="375" depart="37.50" from="gneE5" to="51133939#9"/>
    <trip id="376" depart="37.60" from="758636098#2" to="OP_gneE5"/>
    <trip id="377" depart="37.70" from="OR_I_027" to="337818184#1"/>
    <trip id="378" depart="37.80" from="-19811337#1" to="337818184#1"/>
    <trip id="380" depart="38.00" from="758636098#2" to="OP_gneE5"/>
    <trip id="381" depart="38.10" from="758636098#2" to="19811337#1"/>
    <trip id="383" depart="38.30" from="gneE5" to="102651364#23.9"/>
    <trip id="385" depart="38.50" from="758636098#2" to="337818184#1"/>
    <trip id="387" depart="38.70" from="51086283#3" to="OR_O_005"/>
    <trip id="388" depart="38.80" from="gneE5" to="OR_O_020"/>
    <trip id="389" depart="38.90" from="112446385#5" to="CR_MP_031"/>
    <trip id="390" depart="39.00" from="gneE5" to="19811337#1"/>
    <trip id="391" depart="39.10" from="758636098#2" to="337818184#1"/>
    <trip id="392" depart="39.20" from="OR_I_003" to="102651364#23.9"/>
    <trip id="395" depart="39.50" from="758636098#2" to="337818184#1"/>
    <trip id="396" depart="39.60" from="758636098#2" to="337818184#1"/>
    <trip id="397" depart="39.70" from="51086283#3" to="CR_MP_001"/>
    <trip id="400" depart="40.00" from="gneE5" to="199382582#0"/>
    <trip id="401" depart="40.10" from="51133939#17" to="337818184#1"/>
    <trip id="404" depart="40.40" from="gneE5" to="337818184#1"/>
    <trip id="405" depart="40.50" from="gneE5" to="199382582#0"/>
    <trip id="408" depart="40.80" from="gneE5" to="199382582#0"/>
    <trip id="409" depart="40.90" from="112446385#5" to="OP_gneE5"/>
    <trip id="410" depart="41.00" from="gneE5" to="102651364#23.9"/>
    <trip id="411" depart="41.10" from="CR_MP_011" to="OR_O_017"/>
    <trip id="412" depart="41.20" from="51086283#3" to="199382582#0"/>
    <trip id="413" depart="41.30" from="51086283#3" to="199382582#0"/>
    <trip id="414" depart="41.40" from="OR_I_027" to="OR_O_030"/>
    <trip id="415" depart="41.50" from="51086283#3" to="199382582#0"/>
    <trip id="417" depart="41.70" from="OR_I_027" to="19811337#1"/>
    <trip id="419" depart="41.90" from="gneE5" to="199382582#0"/>
    <trip id="420" depart="42.00" from="-19811337#1" to="102651364#23.9"/>
    <trip id="421" depart="42.10" from="758636098#9" to="199382582#0"/>
    <trip id="422" depart="42.20" from="112446385#5" to="OP_gneE5"/>
    <trip id="425" depart="42.50" from="112446385#5" to="OP_gneE5"/>
    <trip id="427" depart="42.70" from="758636098#2" to="337818184#1"/>
    <trip id="428" depart="42.80" from="102650983#0" to="199382582#0"/>
    <trip id="430" depart="43.00" from="51086283#3" to="199382582#0"/>
    <trip id="432" depart="43.20" from="gneE5" to="19811337#1"/>
    <trip id="434" depart="43.40" from="51133939#3" to="337818184#1"/>
    <trip id="436" depart="43.60" from="51086283#3" to="CR_MP_004"/>
    <trip id="438" depart="43.80" from="51086283#3" to="OR_O_020"/>
    <trip id="441" depart="44.10" from="758636098#2" to="337818184#1"/>
    <trip id="444" depart="44.40" from="758636098#2" to="OP_gneE5"/>
    <trip id="445" depart="44.50" from="51086283#3" to="199382582#0"/>
    <trip id="446" depart="44.60" from="758636098#2" to="51133939#10"/>
    <trip id="449" depart="44.90" from="51133939#12" to="199382582#0"/>
    <trip id="450" depart="45.00" from="758636098#2" to="19811337#1"/>
    <trip id="451" depart="45.10" from="51086283#3" to="199382582#0"/>
    <trip id="452" depart="45.20" from="gneE5" to="337818184#1"/>
    <trip id="453" depart="45.30" from="29576682#7" to="OP_gneE5"/>
    <trip id="455" depart="45.50" from="51086283#3" to="OR_O_010"/>
    <trip id="457" depart="45.70" from="51133939#10" to="199382582#0"/>
    <trip id="458" depart="45.80" from="758636098#2" to="337818184#1"/>
    <trip id="460" depart="46.00" from="OR_I_009" to="OP_gneE5"/>
    <trip id="461" depart="46.10" from="-19811337#1" to="337818184#1"/>
    <trip id="463" depart="46.30" from="758636098#2" to="337818184#1"/>
    <trip id="465" depart="46.50" from="758636098#2" to="758636098#7"/>
    <trip id="466" depart="46.60" from="51086283#3" to="199382582#0"/>
    <trip id="467" depart="46.70" from="51133939#8" to="199382582#0"/>
    <trip id="469" depart="46.90" from="OR_I_006" to="19811337#1"/>
    <trip id="471" depart="47.10" from="gneE5" to="199382582#0"/>
    <trip id="474" depart="47.40" from="gneE5" to="337818184#1"/>
    <trip id="477" depart="47.70" from="758636098#2" to="19811337#1"/>
    <trip id="478" depart="47.80" from="112446385#5" to="OP_gneE5"/>
    <trip id="479" depart="47.90" from="-19811337#1" to="337818184#1"/>
    <trip id="482" depart="48.20" from="-19811337#1" to="337818184#1"/>
    <trip id="483" depart="48.30" from="gneE5" to="199382582#0"/>
    <trip id="484" depart="48.40" from="CR_MP_028" to="102651364#23.9"/>
    <trip id="485" depart="48.50" from="-19811337#1" to="337818184#1"/>
    <trip id="487" depart="48.70" from="-19811337#1" to="102651364#23.9"/>
    <trip id="489" depart="48.90" from="-19811337#1" to="337818184#1"/>
    <trip id="490" depart="49.00" from="-19811337#1" to="337818184#1"/>
    <trip id="491" depart="49.10" from="-19811337#1" to="337818184#1"/>
    <trip id="492" depart="49.20" from="758636098#2" to="19811337#1"/>
    <trip id="497" depart="49.70" from="51086283#3" to="199382582#0"/>
    <trip id="500" depart="50.00" from="758636098#2" to="337818184#1"/>
    <trip id="501" depart="50.10" from="51086283#3" to="199382582#0"/>
    <trip id="502" depart="50.20" from="51086283#3" to="OP_gneE5"/>
    <trip id="504" depart="50.40" from="51086283#3" to="199382582#0"/>
    <trip id="505" depart="50.50" from="gneE5" to="CR_MP_035"/>
    <trip id="506" depart="50.60" from="758636098#2" to="337818184#1"/>
    <trip id="507" depart="50.70" from="758636098#2" to="337818184#1"/>
    <trip id="509" depart="50.90" from="gneE5" to="337818184#1"/>
    <trip id="511" depart="51.10" from="758636098#2" to="758636098#20"/>
    <trip id="513" depart="51.30" from="112446385#5" to="OR_O_018"/>
    <trip id="514" depart="51.40" from="758636098#2" to="19811337#1"/>
    <trip id="515" depart="51.50" from="51086283#3" to="OR_O_003"/>
    <trip id="519" depart="51.90" from="51133939#2" to="199382582#0"/>
    <trip id="520" depart="52.00" from="OR_I_027" to="337818184#1"/>
    <trip id="522" depart="52.20" from="112446384#1" to="337818184#1"/>
    <trip id="523" depart="52.30" from="51086283#3" to="CR_MP_040"/>
    <trip id="525" depart="52.50" from="CR_MP_035" to="19811337#1"/>
    <trip id="527" depart="52.70" from="51086283#3" to="199382582#0"/>
    <trip id="531" depart="53.10" from="gneE5" to="337818184#1"/>
    <trip id="532" depart="53.20" from="758636098#11" to="199382582#0"/>
    <trip id="533" depart="53.30" from="758636098#2" to="337818184#1"/>
    <trip id="534" depart="53.40" from="gneE5" to="102651364#23.9"/>
    <trip id="535" depart="53.50" from="51086283#3" to="OP_gneE5"/>
    <trip id="536" depart="53.60" from="CR_MP_037" to="102651364#23.9"/>
    <trip id="537" depart="53.70" from="51086283#3" to="199382582#0"/>
    <trip id="539" depart="53.90" from="CR_MP_025" to="102651364#23.9"/>
    <trip id="540" depart="54.00" from="51086283#3" to="199382582#0"/>
    <trip id="541" depart="54.10" from="-19811337#1" to="102651364#23.9"/>
    <trip id="542" depart="54.20" from="758636098#2" to="337818184#1"/>
    <trip id="545" depart="54.50" from="758636098#2" to="337818184#1"/>
    <trip id="551" depart="55.10" from="758636098#2" to="OP_gneE5"/>
    <trip id="552" depart="55.20" from="51086283#3" to="199382582#0"/>
    <trip id="553" depart="55.30" from="gneE5" to="199382582#0"/>
    <trip id="554" depart="55.40" from="112446385#5" to="CR_MP_023"/>
    <trip id="555" depart="55.50" from="920870624#1" to="337818184#1"/>
    <trip id="556" depart="55.60" from="51133939#2" to="337818184#1"/>
    <trip id="557" depart="55.70" from="gneE5" to="337818184#1"/>
    <trip id="558" depart="55.80" from="51086283#3" to="OR_O_009"/>
    <trip id="559" depart="55.90" from="51086286#2" to="199382582#0"/>
    <trip id="560" depart="56.00" from="758636098#2" to="337818184#1"/>
    <trip id="561" depart="56.10" from="-19811337#1" to="337818184#1"/>
    <trip id="562" depart="56.20" from="gneE5" to="337818184#1"/>
    <trip id="563" depart="56.30" from="51086283#3" to="OP_gneE5"/>
    <trip id="565" depart="56.50" from="51086283#3" to="OP_gneE5"/>
    <trip id="569" depart="56.90" from="112446385#5" to="CR_MP_017"/>
    <trip id="570" depart="57.00" from="-19811337#1" to="OP_gneE5"/>
    <trip id="573" depart="57.30" from="gneE5" to="337818184#1"/>
    <trip id="574" depart="57.40" from="gneE5" to="102651364#23.9"/>
    <trip id="575" depart="57.50" from="758636098#2" to="337818184#1"/>
    <trip id="577" depart="57.70" from="758636098#2" to="337818184#1"/>
    <trip id="578" depart="57.80" from="gneE5" to="337818184#1"/>
    <trip id="581" depart="58.10" from="gneE5" to="199382582#0"/>
    <trip id="582" depart="58.20" from="112446385#5" to="OP_gneE5"/>
    <trip id="584" depart="58.40" from="51086286#2" to="337818184#1"/>
    <trip id="585" depart="58.50" from="51086283#3" to="199382582#0"/>
    <trip id="586" depart="58.60" from="gneE5" to="51133939#10"/>
    <trip id="588" depart="58.80" from="gneE5" to="337818184#1"/>
    <trip id="589" depart="58.90" from="758636098#2" to="OP_gneE5"/>
    <trip id="590" depart="59.00" from="758636098#2" to="337818184#1"/>
    <trip id="591" depart="59.10" from="758636098#2" to="337818184#1"/>
    <trip id="592" depart="59.20" from="gneE5" to="199382582#0"/>
    <trip id="593" depart="59.30" from="112446385#5" to="CR_MP_006"/>