<?xml version="1.0" encoding="UTF-8"?>

<!-- generated on 2024-08-10 12:36:20.145904 by routeSampler.py v1_20_0+0002-343658e7c64
<configuration>
    <route-files value="intermediate_output/whitelist_6am_7am.rou.xml"/>
    <turn-files value="demand/edge_relation_6am_7am.xml"/>
    <output-file value="demand/calibrated_demand_6am_7am.rou.xml"/>
    <verbose value="True"/>
    <attributes value="type='6am_7am' departLane='free' departSpeed='max'"/>
    <seed value="12345"/>
    <minimize-vehicles value="0.1"/>
</configuration>
-->

<routes xmlns:xsi="http://www.w3.org/2001/XMLSchema-instance" xsi:noNamespaceSchemaLocation="http://sumo.dlr.de/xsd/routes_file.xsd">
<!-- begin="900.0" end="1200.0" -->
    <vehicle id="900_0" depart="900.29" type='6am_7am' departLane='free' departSpeed='max'>
        <route edges="CR_MP_037 CR_MP_038 CR_MP_039"/>
    </vehicle>
    <vehicle id="900_1" depart="900.65" type='6am_7am' departLane='free' departSpeed='max'>
        <route edges="OR_I_026 CR_MP_035 CR_MP_036 CR_MP_037 CR_MP_038 CR_MP_039 CR_MP_040 CR_MP_041"/>
    </vehicle>
    <vehicle id="900_2" depart="900.79" type='6am_7am' departLane='free' departSpeed='max'>
        <route edges="112446385#5 CR_MP_001 CR_MP_002 OR_O_001"/>
    </vehicle>
    <vehicle id="900_3" depart="901.10" type='6am_7am' departLane='free' departSpeed='max'>
        <route edges="OR_I_020 758636098#22 102650983#0 102650983#2 112446384#1 51133939#1 51133939#2 51133939#3"/>
    </vehicle>
    <vehicle id="900_4" depart="901.61" type='6am_7am' departLane='free' departSpeed='max'>
        <route edges="758636098#2 758636098#3 758636098#4 758636098#7 758636098#8 758636098#9 758636098#10 758636098#11 758636098#13 758636098#15 758636098#16 758636098#17 -579012289"/>
    </vehicle>
    <vehicle id="900_5" depart="902.24" type='6am_7am' departLane='free' departSpeed='max'>
        <route edges="OR_I_013 CR_MP_016 CR_MP_017 CR_MP_018 CR_MP_019"/>
    </vehicle>
    <vehicle id="900_6" depart="902.68" type='6am_7am' departLane='free' departSpeed='max'>
        <route edges="51133939#4 51133939#5 51133939#6 51133939#7 51133939#8 51133939#9 51133939#10 51133939#12 51133939#13 51133939#14 51133939#15 51133939#17 51133939#18 51086286#1 51086286#2 51086286#3"/>
    </vehicle>
    <vehicle id="900_7" depart="902.85" type='6am_7am' departLane='free' departSpeed='max'>
        <route edges="gneE5 51133939#5 51133939#6 51133939#7 51133939#8 51133939#9 51133939#10 51133939#12 51133939#13 51133939#14 51133939#15 51133939#17 51133939#18 51086286#1 51086286#2 51086286#3 920870625#0 -920943684"/>
    </vehicle>
    <vehicle id="900_8" depart="902.91" type='6am_7am' departLane='free' departSpeed='max'>
        <route edges="920870624#2 669189459 199382582#0"/>
    </vehicle>
    <vehicle id="900_9" depart="903.49" type='6am_7am' departLane='free' departSpeed='max'>
        <route edges="758636098#2 758636098#3 758636098#4 758636098#7 758636098#8 758636098#9 758636098#10 758636098#11 758636098#13 758636098#15 758636098#16 758636098#17 758636098#18 758636098#19 758636098#20 758636098#21 758636098#22 102650983#0 102650983#2 112446384#1 51133939#1 51133939#2 51133939#3 51133939#4 51133939#5"/>
    </vehicle>
    <vehicle id="900_10" depart="904.39" type='6am_7am' departLane='free' departSpeed='max'>
        <route edges="CR_MP_037 CR_MP_038 CR_MP_039"/>
    </vehicle>
    <vehicle id="900_11" depart="905.10" type='6am_7am' departLane='free' departSpeed='max'>
        <route edges="gneE5 CR_MP_020 CR_MP_021 CR_MP_022 CR_MP_023"/>
    </vehicle>
    <vehicle id="900_12" depart="905.41" type='6am_7am' departLane='free' departSpeed='max'>
        <route edges="OR_I_001 CR_MP_003 CR_MP_004 CR_MP_005 CR_MP_006 CR_MP_007 CR_MP_008 CR_MP_009 CR_MP_010 CR_MP_011 CR_MP_012 CR_MP_013"/>
    </vehicle>
    <vehicle id="900_13" depart="905.64" type='6am_7am' departLane='free' departSpeed='max'>
        <route edges="758636098#20 758636098#21 758636098#22 102650983#0 102650983#2 112446384#1 51133939#1 51133939#2 51133939#3 51133939#4 51133939#5 51133939#6 51133939#7 51133939#8 51133939#9 51133939#10 51133939#12 51133939#13 51133939#14 51133939#15 51133939#17 51133939#18 51086286#1 51086286#2 51086286#3 920870625#0 920870625#1 920870624#1 920870624#2 669189459 199382582#0"/>
    </vehicle>
    <vehicle id="900_14" depart="906.87" type='6am_7am' departLane='free' departSpeed='max'>
        <route edges="CR_MP_037 CR_MP_038 CR_MP_039"/>
    </vehicle>
    <vehicle id="900_15" depart="907.02" type='6am_7am' departLane='free' departSpeed='max'>
        <route edges="gneE5 CR_MP_020 CR_MP_021 CR_MP_022 CR_MP_023 CR_MP_024 CR_MP_025 CR_MP_026 CR_MP_027 CR_MP_028 CR_MP_029 CR_MP_030 CR_MP_031 CR_MP_032"/>
    </vehicle>
    <vehicle id="900_16" depart="907.27" type='6am_7am' departLane='free' departSpeed='max'>
        <route edges="CR_MP_040 CR_MP_041 CR_MP_042 CR_MP_043 102651364#22 102651364#23.9"/>
    </vehicle>
    <vehicle id="900_17" depart="907.32" type='6am_7am' departLane='free' departSpeed='max'>
        <route edges="OR_I_013 CR_MP_016 CR_MP_017 CR_MP_018"/>
    </vehicle>
    <vehicle id="900_18" depart="908.74" type='6am_7am' departLane='free' departSpeed='max'>
        <route edges="CR_MP_005 CR_MP_006 CR_MP_007 CR_MP_008 CR_MP_009 CR_MP_010 CR_MP_011 CR_MP_012 CR_MP_013 CR_MP_014 CR_MP_015 CR_MP_016 CR_MP_017 CR_MP_018 CR_MP_019 CR_MP_020 CR_MP_021 CR_MP_022 CR_MP_023 CR_MP_024 CR_MP_025 CR_MP_026 CR_MP_027 CR_MP_028 CR_MP_029 OR_O_022"/>
    </vehicle>
    <vehicle id="900_19" depart="909.06" type='6am_7am' departLane='free' departSpeed='max'>
        <route edges="112446385#5 CR_MP_001 CR_MP_002 CR_MP_003 CR_MP_004 CR_MP_005 CR_MP_006 CR_MP_007 CR_MP_008 CR_MP_009 CR_MP_010 CR_MP_011 CR_MP_012 CR_MP_013 CR_MP_014 CR_MP_015 CR_MP_016 CR_MP_017 CR_MP_018 CR_MP_019 CR_MP_020 CR_MP_021 CR_MP_022 CR_MP_023 CR_MP_024 CR_MP_025 CR_MP_026 CR_MP_027 46968041#1"/>
    </vehicle>
    <vehicle id="900_20" depart="909.50" type='6am_7am' departLane='free' departSpeed='max'>
        <route edges="OR_I_020 758636098#22 102650983#0 102650983#2 112446384#1 51133939#1 51133939#2 51133939#3"/>
    </vehicle>
    <vehicle id="900_21" depart="909.67" type='6am_7am' departLane='free' departSpeed='max'>
        <route edges="CR_MP_037 CR_MP_038 CR_MP_039"/>
    </vehicle>
    <vehicle id="900_22" depart="909.84" type='6am_7am' departLane='free' departSpeed='max'>
        <route edges="OR_I_026 CR_MP_035 CR_MP_036 CR_MP_037 CR_MP_038 CR_MP_039 CR_MP_040 CR_MP_041 CR_MP_042 CR_MP_043 102651364#22 102651364#23.9"/>
    </vehicle>
    <vehicle id="900_23" depart="910.77" type='6am_7am' departLane='free' departSpeed='max'>
        <route edges="112446385#5 CR_MP_001 CR_MP_002 CR_MP_003 CR_MP_004 CR_MP_005 CR_MP_006 CR_MP_007 CR_MP_008 CR_MP_009 CR_MP_010 CR_MP_011 CR_MP_012 CR_MP_013 CR_MP_014 CR_MP_015 CR_MP_016 CR_MP_017 CR_MP_018 CR_MP_019 CR_MP_020 CR_MP_021 CR_MP_022 CR_MP_023 CR_MP_024 CR_MP_025 CR_MP_026 CR_MP_027 CR_MP_028 CR_MP_029 CR_MP_030 CR_MP_031 CR_MP_032"/>
    </vehicle>
    <vehicle id="900_24" depart="910.81" type='6am_7am' departLane='free' departSpeed='max'>
        <route edges="CR_MP_037 CR_MP_038 CR_MP_039 CR_MP_040 CR_MP_041 CR_MP_042 CR_MP_043 102651364#22 102651364#23.9"/>
    </vehicle>
    <vehicle id="900_25" depart="911.18" type='6am_7am' departLane='free' departSpeed='max'>
        <route edges="CR_MP_024 CR_MP_025 CR_MP_026 CR_MP_027 CR_MP_028 CR_MP_029 CR_MP_030 CR_MP_031 CR_MP_032 CR_MP_033 CR_MP_034"/>
    </vehicle>
    <vehicle id="900_26" depart="911.23" type='6am_7am' departLane='free' departSpeed='max'>
        <route edges="-19811337#1 758636098#3 758636098#4 758636098#7 758636098#8 758636098#9 758636098#10 758636098#11 OR_O_027"/>
    </vehicle>
    <vehicle id="900_27" depart="911.55" type='6am_7am' departLane='free' departSpeed='max'>
        <route edges="109402679.240 51133939#13 51133939#14 51133939#15 51133939#17 51133939#18 51086286#1 51086286#2 51086286#3 920870625#0 920870625#1 920870624#1 920870624#2 669189459 199382582#0"/>
    </vehicle>
    <vehicle id="900_28" depart="912.24" type='6am_7am' departLane='free' departSpeed='max'>
        <route edges="51133939#2 51133939#3 51133939#4 OP_gneE5"/>
    </vehicle>
    <vehicle id="900_29" depart="912.24" type='6am_7am' departLane='free' departSpeed='max'>
        <route edges="112446385#5 CR_MP_001 CR_MP_002 CR_MP_003 CR_MP_004 CR_MP_005 CR_MP_006 CR_MP_007 CR_MP_008 CR_MP_009 CR_MP_010 CR_MP_011 CR_MP_012 CR_MP_013 -371562067#10"/>
    </vehicle>
    <vehicle id="900_30" depart="912.78" type='6am_7am' departLane='free' departSpeed='max'>
        <route edges="CR_MP_036 CR_MP_037 CR_MP_038 CR_MP_039 CR_MP_040 CR_MP_041 CR_MP_042 CR_MP_043 102651364#22 102651364#23.9"/>
    </vehicle>
    <vehicle id="900_31" depart="913.17" type='6am_7am' departLane='free' departSpeed='max'>
        <route edges="OR_I_011 CR_MP_014 CR_MP_015 CR_MP_016 CR_MP_017 CR_MP_018 CR_MP_019 OP_gneE5"/>
    </vehicle>
    <vehicle id="900_32" depart="913.55" type='6am_7am' departLane='free' departSpeed='max'>
        <route edges="51086283#3 351910071 CR_MP_001 CR_MP_002 CR_MP_003 OR_O_002"/>
    </vehicle>
    <vehicle id="900_33" depart="913.83" type='6am_7am' departLane='free' departSpeed='max'>
        <route edges="OR_I_031 CR_MP_042 CR_MP_043 19811337#1"/>
    </vehicle>
    <vehicle id="900_34" depart="914.17" type='6am_7am' departLane='free' departSpeed='max'>
        <route edges="OR_I_001 CR_MP_003 CR_MP_004 CR_MP_005 CR_MP_006 CR_MP_007 CR_MP_008 CR_MP_009 CR_MP_010 CR_MP_011 CR_MP_012 CR_MP_013 CR_MP_014 CR_MP_015 CR_MP_016 CR_MP_017 CR_MP_018 CR_MP_019 OP_gneE5"/>
    </vehicle>
    <vehicle id="900_35" depart="914.56" type='6am_7am' departLane='free' departSpeed='max'>
        <route edges="112446385#5 CR_MP_001 CR_MP_002 CR_MP_003 CR_MP_004 CR_MP_005 CR_MP_006 CR_MP_007 CR_MP_008 CR_MP_009 CR_MP_010 CR_MP_011 CR_MP_012 CR_MP_013 CR_MP_014 CR_MP_015 CR_MP_016 CR_MP_017 CR_MP_018 CR_MP_019 CR_MP_020 CR_MP_021 CR_MP_022 CR_MP_023 CR_MP_024 CR_MP_025"/>
    </vehicle>
    <vehicle id="900_36" depart="915.04" type='6am_7am' departLane='free' departSpeed='max'>
        <route edges="CR_MP_036 CR_MP_037 CR_MP_038 CR_MP_039 CR_MP_040 CR_MP_041 CR_MP_042 CR_MP_043 102651364#22 102651364#23.9"/>
    </vehicle>
    <vehicle id="900_37" depart="915.11" type='6am_7am' departLane='free' departSpeed='max'>
        <route edges="CR_MP_001 CR_MP_002 CR_MP_003 CR_MP_004 CR_MP_005 CR_MP_006 CR_MP_007 CR_MP_008 CR_MP_009 CR_MP_010 CR_MP_011 CR_MP_012 CR_MP_013 CR_MP_014 CR_MP_015 CR_MP_016 CR_MP_017 CR_MP_018 CR_MP_019 CR_MP_020 CR_MP_021 CR_MP_022 CR_MP_023 CR_MP_024 CR_MP_025 CR_MP_026"/>
    </vehicle>
    <vehicle id="900_38" depart="915.62" type='6am_7am' departLane='free' departSpeed='max'>
        <route edges="CR_MP_037 CR_MP_038 CR_MP_039 CR_MP_040 CR_MP_041 CR_MP_042 CR_MP_043 102651364#22 102651364#23.9"/>
    </vehicle>
    <vehicle id="900_39" depart="916.88" type='6am_7am' departLane='free' departSpeed='max'>
        <route edges="112446385#5 CR_MP_001 CR_MP_002 CR_MP_003 CR_MP_004 CR_MP_005 CR_MP_006 CR_MP_007 CR_MP_008 CR_MP_009 CR_MP_010 CR_MP_011 CR_MP_012 CR_MP_013 CR_MP_014 CR_MP_015 CR_MP_016 CR_MP_017 CR_MP_018 CR_MP_019 CR_MP_020 CR_MP_021 CR_MP_022 CR_MP_023 CR_MP_024 CR_MP_025 CR_MP_026 CR_MP_027 CR_MP_028 CR_MP_029 CR_MP_030 CR_MP_031 OR_O_023"/>
    </vehicle>
    <vehicle id="900_40" depart="917.01" type='6am_7am' departLane='free' departSpeed='max'>
        <route edges="CR_MP_019 CR_MP_020 CR_MP_021 CR_MP_022 CR_MP_023 CR_MP_024 CR_MP_025 CR_MP_026 OR_O_020"/>
    </vehicle>
    <vehicle id="900_41" depart="917.75" type='6am_7am' departLane='free' departSpeed='max'>
        <route edges="CR_MP_016 CR_MP_017 CR_MP_018 CR_MP_019 CR_MP_020 CR_MP_021 CR_MP_022 CR_MP_023 CR_MP_024 CR_MP_025 CR_MP_026"/>
    </vehicle>
    <vehicle id="900_42" depart="918.98" type='6am_7am' departLane='free' departSpeed='max'>
        <route edges="CR_MP_040 CR_MP_041 CR_MP_042 CR_MP_043 102651364#22 102651364#23.9"/>
    </vehicle>
    <vehicle id="900_43" depart="921.28" type='6am_7am' departLane='free' departSpeed='max'>
        <route edges="51086283#3 351910071 CR_MP_001 CR_MP_002 CR_MP_003 CR_MP_004 OR_O_003"/>
    </vehicle>
    <vehicle id="900_44" depart="921.64" type='6am_7am' departLane='free' departSpeed='max'>
        <route edges="112446385#5 CR_MP_001 CR_MP_002 CR_MP_003 CR_MP_004 CR_MP_005 CR_MP_006 CR_MP_007 CR_MP_008 CR_MP_009 CR_MP_010 CR_MP_011 CR_MP_012 CR_MP_013 CR_MP_014 CR_MP_015 CR_MP_016 CR_MP_017 CR_MP_018 CR_MP_019 CR_MP_020 CR_MP_021 OR_O_016"/>
    </vehicle>
    <vehicle id="900_45" depart="921.71" type='6am_7am' departLane='free' departSpeed='max'>
        <route edges="OR_I_008 CR_MP_010 CR_MP_011 CR_MP_012 CR_MP_013 CR_MP_014 CR_MP_015 OR_O_013"/>
    </vehicle>
    <vehicle id="900_46" depart="921.94" type='6am_7am' departLane='free' departSpeed='max'>
        <route edges="-19811337#1 758636098#3 758636098#4 758636098#7 758636098#8"/>
    </vehicle>
    <vehicle id="900_47" depart="922.29" type='6am_7am' departLane='free' departSpeed='max'>
        <route edges="CR_MP_024 CR_MP_025 CR_MP_026 CR_MP_027 CR_MP_028 CR_MP_029 CR_MP_030 CR_MP_031 CR_MP_032 CR_MP_033 CR_MP_034"/>
    </vehicle>
    <vehicle id="900_48" depart="922.47" type='6am_7am' departLane='free' departSpeed='max'>
        <route edges="OR_I_020 758636098#22 102650983#0 102650983#2 112446384#1 51133939#1 51133939#2 51133939#3 51133939#4 51133939#5 51133939#6 51133939#7 51133939#8 51133939#9 51133939#10 51133939#12 51133939#13 51133939#14 51133939#15"/>
    </vehicle>
    <vehicle id="900_49" depart="922.75" type='6am_7am' departLane='free' departSpeed='max'>
        <route edges="CR_MP_024 CR_MP_025 CR_MP_026 CR_MP_027 CR_MP_028 CR_MP_029 CR_MP_030 CR_MP_031 CR_MP_032 CR_MP_033 CR_MP_034"/>
    </vehicle>
    <vehicle id="900_50" depart="926.76" type='6am_7am' departLane='free' departSpeed='max'>
        <route edges="CR_MP_040 CR_MP_041 CR_MP_042 CR_MP_043 102651364#22 102651364#23.9"/>
    </vehicle>
    <vehicle id="900_51" depart="927.29" type='6am_7am' departLane='free' departSpeed='max'>
        <route edges="-19811337#1 758636098#3 758636098#4 758636098#7 758636098#8 758636098#9 758636098#10 758636098#11 758636098#13"/>
    </vehicle>
    <vehicle id="900_52" depart="927.56" type='6am_7am' departLane='free' departSpeed='max'>
        <route edges="CR_MP_036 CR_MP_037 CR_MP_038 CR_MP_039 CR_MP_040 CR_MP_041 CR_MP_042 CR_MP_043 102651364#22 102651364#23.9"/>
    </vehicle>
    <vehicle id="900_53" depart="927.97" type='6am_7am' departLane='free' departSpeed='max'>
        <route edges="CR_MP_040 CR_MP_041 CR_MP_042 CR_MP_043 102651364#22 102651364#23.9"/>
    </vehicle>
    <vehicle id="900_54" depart="928.42" type='6am_7am' departLane='free' departSpeed='max'>
        <route edges="51086283#3 351910071 CR_MP_001 CR_MP_002 CR_MP_003 CR_MP_004 CR_MP_005 CR_MP_006 CR_MP_007 CR_MP_008 CR_MP_009 CR_MP_010 CR_MP_011 CR_MP_012 CR_MP_013 CR_MP_014 CR_MP_015 OR_O_013"/>
    </vehicle>
    <vehicle id="900_55" depart="928.78" type='6am_7am' departLane='free' departSpeed='max'>
        <route edges="CR_MP_038 CR_MP_039 CR_MP_040 CR_MP_041 CR_MP_042 CR_MP_043 102651364#22 102651364#23.9"/>
    </vehicle>
    <vehicle id="900_56" depart="929.14" type='6am_7am' departLane='free' departSpeed='max'>
        <route edges="51086283#3 351910071 CR_MP_001 CR_MP_002 CR_MP_003 CR_MP_004 OR_O_003"/>
    </vehicle>
    <vehicle id="900_57" depart="929.16" type='6am_7am' departLane='free' departSpeed='max'>
        <route edges="CR_MP_041 CR_MP_042 CR_MP_043 102651364#22 102651364#23.9"/>
    </vehicle>
    <vehicle id="900_58" depart="929.36" type='6am_7am' departLane='free' departSpeed='max'>
        <route edges="OR_I_030 CR_MP_041 CR_MP_042 CR_MP_043 19811337#1"/>
    </vehicle>
    <vehicle id="900_59" depart="930.10" type='6am_7am' departLane='free' departSpeed='max'>
        <route edges="CR_MP_042 CR_MP_043 102651364#22 102651364#23.9"/>
    </vehicle>
    <vehicle id="900_60" depart="930.16" type='6am_7am' departLane='free' departSpeed='max'>
        <route edges="OR_I_021 CR_MP_029 CR_MP_030 CR_MP_031 CR_MP_032 CR_MP_033 CR_MP_034 CR_MP_035 CR_MP_036 CR_MP_037 CR_MP_038 CR_MP_039 CR_MP_040 CR_MP_041 CR_MP_042 CR_MP_043 102651364#22 102651364#23.9"/>
    </vehicle>
    <vehicle id="900_61" depart="930.19" type='6am_7am' departLane='free' departSpeed='max'>
        <route edges="758636098#2 758636098#3"/>
    </vehicle>
    <vehicle id="900_62" depart="930.33" type='6am_7am' departLane='free' departSpeed='max'>
        <route edges="112446385#5 CR_MP_001 CR_MP_002 CR_MP_003 CR_MP_004 CR_MP_005 CR_MP_006 CR_MP_007 CR_MP_008 CR_MP_009 CR_MP_010 CR_MP_011 CR_MP_012 CR_MP_013 CR_MP_014 CR_MP_015 CR_MP_016 CR_MP_017 CR_MP_018 CR_MP_019 CR_MP_020 CR_MP_021 CR_MP_022 CR_MP_023 CR_MP_024 CR_MP_025 CR_MP_026 CR_MP_027 CR_MP_028 CR_MP_029 CR_MP_030 CR_MP_031 CR_MP_032"/>
    </vehicle>
    <vehicle id="900_63" depart="930.46" type='6am_7am' departLane='free' departSpeed='max'>
        <route edges="OR_I_016 CR_MP_022 CR_MP_023 CR_MP_024"/>
    </vehicle>
    <vehicle id="900_64" depart="930.71" type='6am_7am' departLane='free' departSpeed='max'>
        <route edges="OR_I_015 CR_MP_018 CR_MP_019 CR_MP_020 CR_MP_021 CR_MP_022 CR_MP_023 CR_MP_024 CR_MP_025 CR_MP_026 CR_MP_027 CR_MP_028 CR_MP_029 CR_MP_030 CR_MP_031 CR_MP_032 CR_MP_033 CR_MP_034"/>
    </vehicle>
    <vehicle id="900_65" depart="930.78" type='6am_7am' departLane='free' departSpeed='max'>
        <route edges="gneE5 CR_MP_020 CR_MP_021 CR_MP_022 CR_MP_023 CR_MP_024 CR_MP_025 CR_MP_026 CR_MP_027 CR_MP_028 CR_MP_029 CR_MP_030 CR_MP_031 CR_MP_032 CR_MP_033 OR_O_025"/>
    </vehicle>
    <vehicle id="900_66" depart="930.78" type='6am_7am' departLane='free' departSpeed='max'>
        <route edges="OR_I_026 CR_MP_035 CR_MP_036 CR_MP_037 CR_MP_038 CR_MP_039 CR_MP_040 CR_MP_041"/>
    </vehicle>
    <vehicle id="900_67" depart="931.45" type='6am_7am' departLane='free' departSpeed='max'>
        <route edges="CR_MP_001 CR_MP_002 CR_MP_003 CR_MP_004 CR_MP_005 CR_MP_006 CR_MP_007 CR_MP_008 CR_MP_009 CR_MP_010 CR_MP_011 CR_MP_012 CR_MP_013 CR_MP_014 CR_MP_015 CR_MP_016 CR_MP_017 CR_MP_018 CR_MP_019 CR_MP_020 CR_MP_021 CR_MP_022 CR_MP_023 CR_MP_024 CR_MP_025 CR_MP_026"/>
    </vehicle>
    <vehicle id="900_68" depart="931.94" type='6am_7am' departLane='free' departSpeed='max'>
        <route edges="OR_I_027 CR_MP_038 CR_MP_039 CR_MP_040 OR_O_030"/>
    </vehicle>
    <vehicle id="900_69" depart="932.78" type='6am_7am' departLane='free' departSpeed='max'>
        <route edges="OR_I_022 CR_MP_030 CR_MP_031 CR_MP_032 OR_O_024"/>
    </vehicle>
    <vehicle id="900_70" depart="933.24" type='6am_7am' departLane='free' departSpeed='max'>
        <route edges="112446385#5 CR_MP_001 CR_MP_002 CR_MP_003 CR_MP_004 CR_MP_005 CR_MP_006 CR_MP_007 CR_MP_008 CR_MP_009 CR_MP_010 CR_MP_011 CR_MP_012 CR_MP_013 CR_MP_014 CR_MP_015 CR_MP_016 CR_MP_017 CR_MP_018"/>
    </vehicle>
    <vehicle id="900_71" depart="934.06" type='6am_7am' departLane='free' departSpeed='max'>
        <route edges="OR_I_026 CR_MP_035 CR_MP_036 CR_MP_037 CR_MP_038 CR_MP_039 CR_MP_040 CR_MP_041"/>
    </vehicle>
    <vehicle id="900_72" depart="935.00" type='6am_7am' departLane='free' departSpeed='max'>
        <route edges="gneE5 CR_MP_020 CR_MP_021 CR_MP_022 CR_MP_023 CR_MP_024 CR_MP_025 CR_MP_026 CR_MP_027 CR_MP_028 CR_MP_029 CR_MP_030 CR_MP_031 OR_O_023"/>
    </vehicle>
    <vehicle id="900_73" depart="935.13" type='6am_7am' departLane='free' departSpeed='max'>
        <route edges="112446385#5 CR_MP_001 CR_MP_002 CR_MP_003 CR_MP_004 CR_MP_005 CR_MP_006 CR_MP_007 CR_MP_008 CR_MP_009 CR_MP_010 CR_MP_011 CR_MP_012 CR_MP_013 CR_MP_014 CR_MP_015 CR_MP_016 CR_MP_017 CR_MP_018 CR_MP_019 CR_MP_020 CR_MP_021 CR_MP_022 CR_MP_023 CR_MP_024 CR_MP_025 CR_MP_026 CR_MP_027 CR_MP_028 CR_MP_029 CR_MP_030 CR_MP_031 CR_MP_032"/>
    </vehicle>
    <vehicle id="900_74" depart="936.13" type='6am_7am' departLane='free' departSpeed='max'>
        <route edges="CR_MP_040 CR_MP_041 CR_MP_042 CR_MP_043 19811337#1"/>
    </vehicle>
    <vehicle id="900_75" depart="937.13" type='6am_7am' departLane='free' departSpeed='max'>
        <route edges="51133939#8 51133939#9 51133939#10 51133939#12 51133939#13 51133939#14 51133939#15 51133939#17 51133939#18 51086286#1 51086286#2 51086286#3 920870625#0 920870625#1 920870624#1 920870624#2 669189459 199382582#0"/>
    </vehicle>
    <vehicle id="900_76" depart="937.17" type='6am_7am' departLane='free' departSpeed='max'>
        <route edges="OR_I_029 CR_MP_040 CR_MP_041 CR_MP_042 CR_MP_043 19811337#1"/>
    </vehicle>
    <vehicle id="900_77" depart="937.97" type='6am_7am' departLane='free' departSpeed='max'>
        <route edges="OR_I_026 CR_MP_035 CR_MP_036 CR_MP_037 CR_MP_038 CR_MP_039 CR_MP_040 CR_MP_041"/>
    </vehicle>
    <vehicle id="900_78" depart="938.11" type='6am_7am' departLane='free' departSpeed='max'>
        <route edges="-30093400#1 51133939#6 51133939#7 51133939#8 51133939#9 51133939#10 51133939#12 51133939#13 51133939#14 51133939#15 51133939#17 51133939#18 51086286#1 51086286#2 51086286#3 920870625#0 920870625#1 920870624#1 920870624#2 337818184#0 337818184#1"/>
    </vehicle>
    <vehicle id="900_79" depart="939.37" type='6am_7am' departLane='free' departSpeed='max'>
        <route edges="CR_MP_036 CR_MP_037 CR_MP_038 CR_MP_039 CR_MP_040 CR_MP_041 CR_MP_042 CR_MP_043 19811337#1"/>
    </vehicle>
    <vehicle id="900_80" depart="939.48" type='6am_7am' departLane='free' departSpeed='max'>
        <route edges="758636098#2 758636098#3"/>
    </vehicle>
    <vehicle id="900_81" depart="939.61" type='6am_7am' departLane='free' departSpeed='max'>
        <route edges="758636098#2 758636098#3 758636098#4 758636098#7 758636098#8 758636098#9"/>
    </vehicle>
    <vehicle id="900_82" depart="939.89" type='6am_7am' departLane='free' departSpeed='max'>
        <route edges="758636098#2 758636098#3 758636098#4"/>
    </vehicle>
    <vehicle id="900_83" depart="940.34" type='6am_7am' departLane='free' departSpeed='max'>
        <route edges="102652283#19 CR_MP_026 CR_MP_027 CR_MP_028 CR_MP_029 CR_MP_030"/>
    </vehicle>
    <vehicle id="900_84" depart="942.48" type='6am_7am' departLane='free' departSpeed='max'>
        <route edges="51086286#1 51086286#2 51086286#3 920870625#0 920870625#1 920870624#1 920870624#2 669189459 199382582#0"/>
    </vehicle>
    <vehicle id="900_85" depart="942.78" type='6am_7am' departLane='free' departSpeed='max'>
        <route edges="758636098#20 758636098#21 758636098#22 102650983#0 102650983#2"/>
    </vehicle>
    <vehicle id="900_86" depart="942.89" type='6am_7am' departLane='free' departSpeed='max'>
        <route edges="gneE5 CR_MP_020 CR_MP_021 CR_MP_022 CR_MP_023 CR_MP_024 CR_MP_025 CR_MP_026 CR_MP_027 CR_MP_028 CR_MP_029 CR_MP_030 CR_MP_031 CR_MP_032 CR_MP_033 CR_MP_034"/>
    </vehicle>
    <vehicle id="900_87" depart="943.59" type='6am_7am' departLane='free' departSpeed='max'>
        <route edges="758636098#2 758636098#3 758636098#4 758636098#7 758636098#8 758636098#9 758636098#10 758636098#11 758636098#13 758636098#15 758636098#16 -109082673#1"/>
    </vehicle>
    <vehicle id="900_88" depart="943.79" type='6am_7am' departLane='free' departSpeed='max'>
        <route edges="CR_MP_039 CR_MP_040 CR_MP_041 CR_MP_042 CR_MP_043 102651364#22 102651364#23.9"/>
    </vehicle>
    <vehicle id="900_89" depart="944.05" type='6am_7am' departLane='free' departSpeed='max'>
        <route edges="CR_MP_037 CR_MP_038 CR_MP_039"/>
    </vehicle>
    <vehicle id="900_90" depart="944.12" type='6am_7am' departLane='free' departSpeed='max'>
        <route edges="OR_I_023 CR_MP_032 OR_O_024"/>
    </vehicle>
    <vehicle id="900_91" depart="945.55" type='6am_7am' departLane='free' departSpeed='max'>
        <route edges="CR_MP_037 CR_MP_038 CR_MP_039 CR_MP_040 CR_MP_041 CR_MP_042 CR_MP_043 102651364#22 102651364#23.9"/>
    </vehicle>
    <vehicle id="900_92" depart="945.61" type='6am_7am' departLane='free' departSpeed='max'>
        <route edges="758636098#2 758636098#3 758636098#4 758636098#7 758636098#8 758636098#9 758636098#10 758636098#11 758636098#13 758636098#15 758636098#16 758636098#17 758636098#18"/>
    </vehicle>
    <vehicle id="900_93" depart="945.76" type='6am_7am' departLane='free' departSpeed='max'>
        <route edges="112446385#5 CR_MP_001 CR_MP_002 CR_MP_003 CR_MP_004 CR_MP_005 CR_MP_006 OR_O_005"/>
    </vehicle>
    <vehicle id="900_94" depart="946.33" type='6am_7am' departLane='free' departSpeed='max'>
        <route edges="OR_I_026 CR_MP_035 CR_MP_036 CR_MP_037 CR_MP_038 CR_MP_039 CR_MP_040 CR_MP_041 CR_MP_042 CR_MP_043 102651364#22 102651364#23.9"/>
    </vehicle>
    <vehicle id="900_95" depart="946.97" type='6am_7am' departLane='free' departSpeed='max'>
        <route edges="112446385#5 CR_MP_001 CR_MP_002 CR_MP_003 CR_MP_004 CR_MP_005 CR_MP_006 CR_MP_007 CR_MP_008 CR_MP_009 CR_MP_010 CR_MP_011 CR_MP_012 CR_MP_013 CR_MP_014 CR_MP_015 CR_MP_016 CR_MP_017 CR_MP_018 CR_MP_019 CR_MP_020 CR_MP_021 CR_MP_022 CR_MP_023 CR_MP_024 CR_MP_025 CR_MP_026 CR_MP_027 CR_MP_028"/>
    </vehicle>
    <vehicle id="900_96" depart="947.48" type='6am_7am' departLane='free' departSpeed='max'>
        <route edges="CR_MP_035 CR_MP_036 CR_MP_037 CR_MP_038 CR_MP_039 CR_MP_040 CR_MP_041 CR_MP_042 CR_MP_043 102651364#22 102651364#23.9"/>
    </vehicle>
    <vehicle id="900_97" depart="948.24" type='6am_7am' departLane='free' departSpeed='max'>
        <route edges="51086283#3 351910071 CR_MP_001 CR_MP_002 CR_MP_003 CR_MP_004 CR_MP_005 CR_MP_006 CR_MP_007 CR_MP_008"/>
    </vehicle>
    <vehicle id="900_98" depart="948.35" type='6am_7am' departLane='free' departSpeed='max'>
        <route edges="CR_MP_007 CR_MP_008 CR_MP_009 CR_MP_010 CR_MP_011 CR_MP_012 CR_MP_013 CR_MP_014 CR_MP_015 CR_MP_016 CR_MP_017 OR_O_015"/>
    </vehicle>
    <vehicle id="900_99" depart="949.03" type='6am_7am' departLane='free' departSpeed='max'>
        <route edges="51086283#3 351910071 CR_MP_001 CR_MP_002 CR_MP_003 CR_MP_004 CR_MP_005 CR_MP_006 CR_MP_007 CR_MP_008 CR_MP_009 CR_MP_010 CR_MP_011 CR_MP_012 CR_MP_013 CR_MP_014 CR_MP_015 CR_MP_016 CR_MP_017 CR_MP_018 CR_MP_019 CR_MP_020 CR_MP_021 CR_MP_022 CR_MP_023 CR_MP_024 CR_MP_025 CR_MP_026 CR_MP_027 CR_MP_028"/>
    </vehicle>
    <vehicle id="900_100" depart="949.43" type='6am_7am' departLane='free' departSpeed='max'>
        <route edges="OR_I_019 CR_MP_026 CR_MP_027"/>
    </vehicle>
    <vehicle id="900_101" depart="949.87" type='6am_7am' departLane='free' departSpeed='max'>
        <route edges="OR_I_021 CR_MP_029 CR_MP_030 CR_MP_031"/>
    </vehicle>
    <vehicle id="900_102" depart="950.06" type='6am_7am' departLane='free' departSpeed='max'>
        <route edges="112446385#5 CR_MP_001 CR_MP_002 CR_MP_003 CR_MP_004 CR_MP_005 CR_MP_006 CR_MP_007 CR_MP_008 CR_MP_009 CR_MP_010 CR_MP_011 CR_MP_012 CR_MP_013 CR_MP_014 CR_MP_015 CR_MP_016 CR_MP_017 CR_MP_018 CR_MP_019 CR_MP_020 CR_MP_021 CR_MP_022 CR_MP_023 CR_MP_024 CR_MP_025 CR_MP_026 CR_MP_027 46968041#1"/>
    </vehicle>
    <vehicle id="900_103" depart="950.34" type='6am_7am' departLane='free' departSpeed='max'>
        <route edges="CR_MP_037 CR_MP_038 CR_MP_039"/>
    </vehicle>
    <vehicle id="900_104" depart="950.53" type='6am_7am' departLane='free' departSpeed='max'>
        <route edges="OR_I_008 CR_MP_010 CR_MP_011 CR_MP_012 CR_MP_013"/>
    </vehicle>
    <vehicle id="900_105" depart="950.59" type='6am_7am' departLane='free' departSpeed='max'>
        <route edges="51086283#3 351910071 CR_MP_001 CR_MP_002 CR_MP_003 CR_MP_004 CR_MP_005 CR_MP_006 OR_O_005"/>
    </vehicle>
    <vehicle id="900_106" depart="951.26" type='6am_7am' departLane='free' departSpeed='max'>
        <route edges="112446385#5 CR_MP_001 CR_MP_002 CR_MP_003 CR_MP_004 CR_MP_005 CR_MP_006 CR_MP_007 CR_MP_008 CR_MP_009 CR_MP_010 CR_MP_011 OR_O_009"/>
    </vehicle>
    <vehicle id="900_107" depart="951.33" type='6am_7am' departLane='free' departSpeed='max'>
        <route edges="-19811337#1 758636098#3 758636098#4 758636098#7 758636098#8 758636098#9 758636098#10 758636098#11 758636098#13 758636098#15 758636098#16 758636098#17 -579012289"/>
    </vehicle>
    <vehicle id="900_108" depart="951.68" type='6am_7am' departLane='free' departSpeed='max'>
        <route edges="CR_MP_024 CR_MP_025 CR_MP_026 CR_MP_027 CR_MP_028 CR_MP_029 CR_MP_030 CR_MP_031 CR_MP_032 CR_MP_033 CR_MP_034"/>
    </vehicle>
    <vehicle id="900_109" depart="953.02" type='6am_7am' departLane='free' departSpeed='max'>
        <route edges="CR_MP_004 CR_MP_005 CR_MP_006 CR_MP_007 CR_MP_008 CR_MP_009 CR_MP_010 CR_MP_011 CR_MP_012 CR_MP_013 CR_MP_014 CR_MP_015 CR_MP_016 CR_MP_017 CR_MP_018 CR_MP_019 CR_MP_020 CR_MP_021 CR_MP_022 CR_MP_023 CR_MP_024 OR_O_018"/>
    </vehicle>
    <vehicle id="900_110" depart="953.73" type='6am_7am' departLane='free' departSpeed='max'>
        <route edges="CR_MP_037 CR_MP_038 CR_MP_039 CR_MP_040 CR_MP_041 CR_MP_042 CR_MP_043 102651364#22 102651364#23.9"/>
    </vehicle>
    <vehicle id="900_111" depart="953.88" type='6am_7am' departLane='free' departSpeed='max'>
        <route edges="758636098#2 19811337#1"/>
    </vehicle>
    <vehicle id="900_112" depart="954.15" type='6am_7am' departLane='free' departSpeed='max'>
        <route edges="CR_MP_041 CR_MP_042 CR_MP_043 102651364#22 102651364#23.9"/>
    </vehicle>
    <vehicle id="900_113" depart="954.45" type='6am_7am' departLane='free' departSpeed='max'>
        <route edges="758636098#21 758636098#22 102650983#0"/>
    </vehicle>