<?xml version="1.0" encoding="UTF-8"?>

<!-- generated on 2024-08-10 12:36:17.962436 by routeSampler.py v1_20_0+0002-343658e7c64
<configuration>
    <route-files value="intermediate_output/whitelist_warmup.rou.xml"/>
    <turn-files value="demand/edge_relation_warmup.xml"/>
    <output-file value="demand/calibrated_demand_warmup.rou.xml"/>
    <verbose value="True"/>
    <attributes value="type='warmup' departLane='free' departSpeed='max'"/>
    <seed value="12345"/>
    <minimize-vehicles value="0.1"/>
</configuration>
-->

<routes xmlns:xsi="http://www.w3.org/2001/XMLSchema-instance" xsi:noNamespaceSchemaLocation="http://sumo.dlr.de/xsd/routes_file.xsd">
<!-- begin="0.0" end="300.0" -->
    <vehicle id="0_0" depart="0.32" type='warmup' departLane='free' departSpeed='max'>
        <route edges="CR_MP_043 102651364#22 102651364#23.9"/>
    </vehicle>
    <vehicle id="0_1" depart="0.65" type='warmup' departLane='free' departSpeed='max'>
        <route edges="CR_MP_035 CR_MP_036 CR_MP_037 CR_MP_038 CR_MP_039 CR_MP_040 CR_MP_041 CR_MP_042 CR_MP_043 102651364#22 102651364#23.9"/>
    </vehicle>
    <vehicle id="0_2" depart="1.24" type='warmup' departLane='free' departSpeed='max'>
        <route edges="OR_I_015 CR_MP_018 CR_MP_019 CR_MP_020 CR_MP_021 CR_MP_022 CR_MP_023 CR_MP_024 CR_MP_025 CR_MP_026 CR_MP_027 CR_MP_028 CR_MP_029 CR_MP_030 CR_MP_031 CR_MP_032 CR_MP_033 CR_MP_034"/>
    </vehicle>
    <vehicle id="0_3" depart="1.27" type='warmup' departLane='free' departSpeed='max'>
        <route edges="112446385#5 CR_MP_001 CR_MP_002 CR_MP_003 CR_MP_004 CR_MP_005 CR_MP_006 CR_MP_007 CR_MP_008 CR_MP_009 CR_MP_010 CR_MP_011 CR_MP_012 CR_MP_013 CR_MP_014 CR_MP_015 CR_MP_016 CR_MP_017 CR_MP_018 CR_MP_019 CR_MP_020 CR_MP_021 CR_MP_022 CR_MP_023 CR_MP_024 CR_MP_025 CR_MP_026 CR_MP_027 CR_MP_028 CR_MP_029 CR_MP_030 CR_MP_031 CR_MP_032 CR_MP_033"/>
    </vehicle>
    <vehicle id="0_4" depart="1.37" type='warmup' departLane='free' departSpeed='max'>
        <route edges="112446385#5 CR_MP_001 CR_MP_002 OR_O_001"/>
    </vehicle>
    <vehicle id="0_5" depart="1.54" type='warmup' departLane='free' departSpeed='max'>
        <route edges="758636098#2 758636098#3 758636098#4 758636098#7 758636098#8 758636098#9 758636098#10 758636098#11 758636098#13 758636098#15 758636098#16"/>
    </vehicle>
    <vehicle id="0_6" depart="2.63" type='warmup' departLane='free' departSpeed='max'>
        <route edges="758636098#2 758636098#3 758636098#4 758636098#7 758636098#8 758636098#9 758636098#10 758636098#11 758636098#13 758636098#15 758636098#16 758636098#17"/>
    </vehicle>
    <vehicle id="0_7" depart="2.93" type='warmup' departLane='free' departSpeed='max'>
        <route edges="-19811337#1 758636098#3 758636098#4 758636098#7"/>
    </vehicle>
    <vehicle id="0_8" depart="3.24" type='warmup' departLane='free' departSpeed='max'>
        <route edges="CR_MP_036 CR_MP_037 CR_MP_038 OR_O_028"/>
    </vehicle>
    <vehicle id="0_9" depart="4.94" type='warmup' departLane='free' departSpeed='max'>
        <route edges="112446385#5 CR_MP_001 CR_MP_002 CR_MP_003 CR_MP_004 CR_MP_005 CR_MP_006 CR_MP_007 CR_MP_008 CR_MP_009 CR_MP_010 CR_MP_011 CR_MP_012 CR_MP_013 CR_MP_014 CR_MP_015 CR_MP_016 CR_MP_017 CR_MP_018 CR_MP_019 CR_MP_020 CR_MP_021 CR_MP_022 CR_MP_023 CR_MP_024 CR_MP_025 CR_MP_026 CR_MP_027 CR_MP_028 CR_MP_029 CR_MP_030 CR_MP_031"/>
    </vehicle>
    <vehicle id="0_10" depart="8.27" type='warmup' departLane='free' departSpeed='max'>
        <route edges="109402683 51133939#8 51133939#9 51133939#10 51133939#12 51133939#13 51133939#14 51133939#15 51133939#17 51133939#18 51086286#1 51086286#2 51086286#3 920870625#0 920870625#1 920870624#1 920870624#2 337818184#0 337818184#1"/>
    </vehicle>
    <vehicle id="0_11" depart="8.65" type='warmup' departLane='free' departSpeed='max'>
        <route edges="758636098#2 758636098#3 758636098#4 758636098#7 758636098#8 758636098#9 758636098#10"/>
    </vehicle>
    <vehicle id="0_12" depart="9.72" type='warmup' departLane='free' departSpeed='max'>
        <route edges="gneE5 51133939#5 51133939#6 51133939#7 51133939#8 51133939#9 51133939#10 51133939#12 51133939#13 51133939#14 51133939#15 51133939#17 51133939#18"/>
    </vehicle>
    <vehicle id="0_13" depart="12.24" type='warmup' departLane='free' departSpeed='max'>
        <route edges="51086283#3 351910071 CR_MP_001 CR_MP_002 CR_MP_003 CR_MP_004 CR_MP_005 OR_O_004"/>
    </vehicle>
    <vehicle id="0_14" depart="12.40" type='warmup' departLane='free' departSpeed='max'>
        <route edges="CR_MP_040 CR_MP_041 CR_MP_042 CR_MP_043 102651364#22 102651364#23.9"/>
    </vehicle>
    <vehicle id="0_15" depart="13.17" type='warmup' departLane='free' departSpeed='max'>
        <route edges="OR_I_002 CR_MP_004 CR_MP_005 CR_MP_006 CR_MP_007 CR_MP_008 CR_MP_009 CR_MP_010 CR_MP_011 CR_MP_012 CR_MP_013 OR_O_011"/>
    </vehicle>
    <vehicle id="0_16" depart="14.09" type='warmup' departLane='free' departSpeed='max'>
        <route edges="gneE5 CR_MP_020 CR_MP_021 CR_MP_022 CR_MP_023 CR_MP_024 CR_MP_025 CR_MP_026 CR_MP_027 CR_MP_028 OR_O_021"/>
    </vehicle>
    <vehicle id="0_17" depart="14.33" type='warmup' departLane='free' departSpeed='max'>
        <route edges="OR_I_020 758636098#22 102650983#0 102650983#2 112446384#1 51133939#1 51133939#2 51133939#3 51133939#4 51133939#5 51133939#6 51133939#7 51133939#8 51133939#9 51133939#10 51133939#12 51133939#13 51133939#14 51133939#15"/>
    </vehicle>
    <vehicle id="0_18" depart="15.11" type='warmup' departLane='free' departSpeed='max'>
        <route edges="758636098#2 758636098#3 758636098#4 758636098#7 758636098#8 758636098#9 758636098#10 758636098#11 758636098#13"/>
    </vehicle>
    <vehicle id="0_19" depart="15.95" type='warmup' departLane='free' departSpeed='max'>
        <route edges="gneE5 CR_MP_020 CR_MP_021 OR_O_016"/>
    </vehicle>
    <vehicle id="0_20" depart="16.13" type='warmup' departLane='free' departSpeed='max'>
        <route edges="112446385#5 CR_MP_001 CR_MP_002 CR_MP_003 CR_MP_004 CR_MP_005 CR_MP_006 CR_MP_007 CR_MP_008 CR_MP_009 OR_O_008"/>
    </vehicle>
    <vehicle id="0_21" depart="16.52" type='warmup' departLane='free' departSpeed='max'>
        <route edges="OR_I_019 102650983#0 102650983#2 112446384#1 51133939#1 51133939#2 51133939#3 51133939#4 OP_gneE5"/>
    </vehicle>
    <vehicle id="0_22" depart="17.75" type='warmup' departLane='free' departSpeed='max'>
        <route edges="51086283#3 351910071 CR_MP_001 CR_MP_002 CR_MP_003 CR_MP_004 CR_MP_005 CR_MP_006 CR_MP_007 CR_MP_008 CR_MP_009 CR_MP_010 CR_MP_011 CR_MP_012 OR_O_010"/>
    </vehicle>
    <vehicle id="0_23" depart="17.79" type='warmup' departLane='free' departSpeed='max'>
        <route edges="OR_I_031 CR_MP_042 CR_MP_043 102651364#22 102651364#23.9"/>
    </vehicle>
    <vehicle id="0_24" depart="19.40" type='warmup' departLane='free' departSpeed='max'>
        <route edges="758636098#19 758636098#20 758636098#21 758636098#22 102650983#0 102650983#2 112446384#1 51133939#1 51133939#2 51133939#3 51133939#4 51133939#5 51133939#6 51133939#7 51133939#8 51133939#9 51133939#10 51133939#12 51133939#13 51133939#14 51133939#15 51133939#17 51133939#18 51086286#1 51086286#2 51086286#3 920870625#0 920870625#1 920870624#1 920870624#2 669189459 199382582#0"/>
    </vehicle>
    <vehicle id="0_25" depart="20.11" type='warmup' departLane='free' departSpeed='max'>
        <route edges="112446385#5 CR_MP_001 CR_MP_002 CR_MP_003 CR_MP_004 CR_MP_005 CR_MP_006 CR_MP_007 CR_MP_008 CR_MP_009 CR_MP_010 CR_MP_011 CR_MP_012 CR_MP_013 CR_MP_014 CR_MP_015 CR_MP_016 CR_MP_017 CR_MP_018 CR_MP_019 CR_MP_020 CR_MP_021 CR_MP_022 CR_MP_023 CR_MP_024 CR_MP_025 CR_MP_026 OR_O_020"/>
    </vehicle>
    <vehicle id="0_26" depart="22.29" type='warmup' departLane='free' departSpeed='max'>
        <route edges="OR_I_029 CR_MP_040 CR_MP_041 CR_MP_042 CR_MP_043 19811337#1"/>
    </vehicle>
    <vehicle id="0_27" depart="24.01" type='warmup' departLane='free' departSpeed='max'>
        <route edges="CR_MP_040 CR_MP_041 CR_MP_042 CR_MP_043 102651364#22 102651364#23.9"/>
    </vehicle>
    <vehicle id="0_28" depart="25.41" type='warmup' departLane='free' departSpeed='max'>
        <route edges="OR_I_029 CR_MP_040 CR_MP_041 CR_MP_042 CR_MP_043 102651364#22 102651364#23.9"/>
    </vehicle>
    <vehicle id="0_29" depart="28.28" type='warmup' departLane='free' departSpeed='max'>
        <route edges="51133939#12 51133939#13 51133939#14 51133939#15 51133939#17 51133939#18 51086286#1 51086286#2 51086286#3 920870625#0 920870625#1 920870624#1 920870624#2 669189459 199382582#0"/>
    </vehicle>
    <vehicle id="0_30" depart="30.02" type='warmup' departLane='free' departSpeed='max'>
        <route edges="51086286#3 920870625#0 920870625#1 920870624#1 920870624#2 669189459 199382582#0"/>
    </vehicle>
    <vehicle id="0_31" depart="30.48" type='warmup' departLane='free' departSpeed='max'>
        <route edges="CR_MP_037 CR_MP_038 CR_MP_039 CR_MP_040 CR_MP_041 CR_MP_042 CR_MP_043 19811337#1"/>
    </vehicle>
    <vehicle id="0_32" depart="30.71" type='warmup' departLane='free' departSpeed='max'>
        <route edges="758636098#2 758636098#3 758636098#4 758636098#7 758636098#8 758636098#9 758636098#10 758636098#11 758636098#13 758636098#15"/>
    </vehicle>
    <vehicle id="0_33" depart="30.78" type='warmup' departLane='free' departSpeed='max'>
        <route edges="OR_I_006 CR_MP_008 CR_MP_009 CR_MP_010 CR_MP_011 CR_MP_012 CR_MP_013 CR_MP_014 CR_MP_015 CR_MP_016 CR_MP_017 CR_MP_018 CR_MP_019 CR_MP_020 CR_MP_021 CR_MP_022 CR_MP_023 CR_MP_024 CR_MP_025 CR_MP_026 CR_MP_027 CR_MP_028 CR_MP_029 CR_MP_030 CR_MP_031 CR_MP_032 CR_MP_033 CR_MP_034 CR_MP_035 CR_MP_036 CR_MP_037 CR_MP_038 CR_MP_039 CR_MP_040 CR_MP_041 CR_MP_042 CR_MP_043 19811337#1"/>
    </vehicle>
    <vehicle id="0_34" depart="32.53" type='warmup' departLane='free' departSpeed='max'>
        <route edges="112446385#5 CR_MP_001 CR_MP_002 CR_MP_003 CR_MP_004 CR_MP_005 CR_MP_006 CR_MP_007 CR_MP_008 CR_MP_009 CR_MP_010 CR_MP_011 CR_MP_012 CR_MP_013 CR_MP_014 CR_MP_015 CR_MP_016 CR_MP_017 CR_MP_018 CR_MP_019 CR_MP_020 CR_MP_021 CR_MP_022 CR_MP_023 CR_MP_024 CR_MP_025 CR_MP_026 CR_MP_027 CR_MP_028 CR_MP_029 CR_MP_030 CR_MP_031"/>
    </vehicle>
    <vehicle id="0_35" depart="32.78" type='warmup' departLane='free' departSpeed='max'>
        <route edges="51086283#3 351910071 CR_MP_001 CR_MP_002 CR_MP_003 OR_O_002"/>
    </vehicle>
    <vehicle id="0_36" depart="34.51" type='warmup' departLane='free' departSpeed='max'>
        <route edges="CR_MP_038 CR_MP_039 CR_MP_040 CR_MP_041 CR_MP_042 CR_MP_043 102651364#22 102651364#23.9"/>
    </vehicle>
    <vehicle id="0_37" depart="36.07" type='warmup' departLane='free' departSpeed='max'>
        <route edges="112446385#5 CR_MP_001 CR_MP_002 CR_MP_003 CR_MP_004 CR_MP_005 CR_MP_006 CR_MP_007 CR_MP_008 CR_MP_009 CR_MP_010 CR_MP_011 CR_MP_012 CR_MP_013 CR_MP_014 CR_MP_015 CR_MP_016 CR_MP_017 CR_MP_018 CR_MP_019 CR_MP_020 CR_MP_021 CR_MP_022 CR_MP_023 CR_MP_024 OR_O_018"/>
    </vehicle>
    <vehicle id="0_38" depart="37.25" type='warmup' departLane='free' departSpeed='max'>
        <route edges="-19811337#1 758636098#3 758636098#4 758636098#7 758636098#8 758636098#9 758636098#10 758636098#11"/>
    </vehicle>
    <vehicle id="0_39" depart="38.42" type='warmup' departLane='free' departSpeed='max'>
        <route edges="CR_MP_037 CR_MP_038 CR_MP_039 CR_MP_040 CR_MP_041 CR_MP_042 CR_MP_043 102651364#22 102651364#23.9"/>
    </vehicle>
    <vehicle id="0_40" depart="38.64" type='warmup' departLane='free' departSpeed='max'>
        <route edges="-19811337#1 758636098#3 758636098#4 758636098#7 758636098#8 758636098#9 758636098#10 758636098#11 758636098#13 758636098#15 758636098#16"/>
    </vehicle>
    <vehicle id="0_41" depart="39.19" type='warmup' departLane='free' departSpeed='max'>
        <route edges="CR_MP_037 CR_MP_038 CR_MP_039 CR_MP_040 CR_MP_041 CR_MP_042 CR_MP_043 102651364#22 102651364#23.9"/>
    </vehicle>
    <vehicle id="0_42" depart="40.06" type='warmup' departLane='free' departSpeed='max'>
        <route edges="112446385#5 CR_MP_001 CR_MP_002 OR_O_001"/>
    </vehicle>
    <vehicle id="0_43" depart="40.52" type='warmup' departLane='free' departSpeed='max'>
        <route edges="-19811337#1 758636098#3 758636098#4 758636098#7 758636098#8 758636098#9 758636098#10 758636098#11 758636098#13 758636098#15 758636098#16 758636098#17"/>
    </vehicle>
    <vehicle id="0_44" depart="44.81" type='warmup' departLane='free' departSpeed='max'>
        <route edges="758636098#2 758636098#3 758636098#4 758636098#7 758636098#8 758636098#9 758636098#10 758636098#11 758636098#13 758636098#15 758636098#16 758636098#17 -579012289"/>
    </vehicle>
    <vehicle id="0_45" depart="45.81" type='warmup' departLane='free' departSpeed='max'>
        <route edges="CR_MP_036 CR_MP_037 CR_MP_038 CR_MP_039 CR_MP_040 CR_MP_041 CR_MP_042 CR_MP_043 102651364#22 102651364#23.9"/>
    </vehicle>
    <vehicle id="0_46" depart="46.80" type='warmup' departLane='free' departSpeed='max'>
        <route edges="CR_MP_035 CR_MP_036 CR_MP_037 CR_MP_038 CR_MP_039 CR_MP_040 CR_MP_041 CR_MP_042 CR_MP_043 102651364#22 102651364#23.9"/>
    </vehicle>
    <vehicle id="0_47" depart="46.97" type='warmup' departLane='free' departSpeed='max'>
        <route edges="CR_MP_037 CR_MP_038 CR_MP_039 CR_MP_040 CR_MP_041 CR_MP_042 CR_MP_043 102651364#22 102651364#23.9"/>
    </vehicle>
    <vehicle id="0_48" depart="48.58" type='warmup' departLane='free' departSpeed='max'>
        <route edges="OR_I_026 CR_MP_035 CR_MP_036 CR_MP_037 CR_MP_038 CR_MP_039 CR_MP_040 CR_MP_041 CR_MP_042 CR_MP_043 102651364#22 102651364#23.9"/>
    </vehicle>
    <vehicle id="0_49" depart="48.71" type='warmup' departLane='free' departSpeed='max'>
        <route edges="OR_I_026 CR_MP_035 CR_MP_036 CR_MP_037 CR_MP_038 CR_MP_039 CR_MP_040 CR_MP_041 CR_MP_042 CR_MP_043 102651364#22 102651364#23.9"/>
    </vehicle>
    <vehicle id="0_50" depart="49.43" type='warmup' departLane='free' departSpeed='max'>
        <route edges="112446385#5 CR_MP_001 CR_MP_002 CR_MP_003 CR_MP_004"/>
    </vehicle>
    <vehicle id="0_51" depart="50.48" type='warmup' departLane='free' departSpeed='max'>
        <route edges="OR_I_031 CR_MP_042 CR_MP_043 19811337#1"/>
    </vehicle>
    <vehicle id="0_52" depart="50.89" type='warmup' departLane='free' departSpeed='max'>
        <route edges="gneE5 CR_MP_020 CR_MP_021 OR_O_016"/>
    </vehicle>
    <vehicle id="0_53" depart="50.96" type='warmup' departLane='free' departSpeed='max'>
        <route edges="758636098#2 758636098#3 758636098#4 758636098#7 758636098#8 758636098#9 758636098#10 758636098#11 758636098#13 758636098#15 758636098#16 758636098#17 -579012289"/>
    </vehicle>
    <vehicle id="0_54" depart="51.58" type='warmup' departLane='free' departSpeed='max'>
        <route edges="OR_I_001 CR_MP_003 CR_MP_004 CR_MP_005 CR_MP_006 CR_MP_007 CR_MP_008 CR_MP_009 CR_MP_010 CR_MP_011 CR_MP_012 CR_MP_013"/>
    </vehicle>
    <vehicle id="0_55" depart="52.47" type='warmup' departLane='free' departSpeed='max'>
        <route edges="51086286#3 920870625#0 920870625#1 920870624#1 920870624#2 337818184#0 337818184#1"/>
    </vehicle>
    <vehicle id="0_56" depart="52.56" type='warmup' departLane='free' departSpeed='max'>
        <route edges="OR_I_001 CR_MP_003 CR_MP_004 CR_MP_005 CR_MP_006 OR_O_005"/>
    </vehicle>
    <vehicle id="0_57" depart="52.92" type='warmup' departLane='free' departSpeed='max'>
        <route edges="-19811337#1 758636098#3 758636098#4 758636098#7 758636098#8 758636098#9 758636098#10 758636098#11 758636098#13 758636098#15 758636098#16 758636098#17 758636098#18"/>
    </vehicle>
    <vehicle id="0_58" depart="54.45" type='warmup' departLane='free' departSpeed='max'>
        <route edges="OR_I_019 CR_MP_026 CR_MP_027"/>
    </vehicle>
    <vehicle id="0_59" depart="54.52" type='warmup' departLane='free' departSpeed='max'>
        <route edges="55328915#24 51133939#1 51133939#2 51133939#3 51133939#4 51133939#5 51133939#6 51133939#7 51133939#8 51133939#9 51133939#10 51133939#12 51133939#13 51133939#14 51133939#15 51133939#17 51133939#18 51086286#1 51086286#2 51086286#3 920870625#0 920870625#1 920870624#1 920870624#2 337818184#0 337818184#1"/>
    </vehicle>
    <vehicle id="0_60" depart="54.55" type='warmup' departLane='free' departSpeed='max'>
        <route edges="112446385#5 CR_MP_001 CR_MP_002 CR_MP_003 CR_MP_004 CR_MP_005 CR_MP_006 CR_MP_007 CR_MP_008 CR_MP_009"/>
    </vehicle>
    <vehicle id="0_61" depart="55.59" type='warmup' departLane='free' departSpeed='max'>
        <route edges="CR_MP_038 CR_MP_039 CR_MP_040 CR_MP_041 CR_MP_042 CR_MP_043 102651364#22 102651364#23.9"/>
    </vehicle>
    <vehicle id="0_62" depart="56.01" type='warmup' departLane='free' departSpeed='max'>
        <route edges="51086283#3 351910071 CR_MP_001 CR_MP_002 CR_MP_003 CR_MP_004 CR_MP_005 CR_MP_006 CR_MP_007 CR_MP_008 CR_MP_009 CR_MP_010 CR_MP_011 CR_MP_012 CR_MP_013 CR_MP_014 CR_MP_015 CR_MP_016 CR_MP_017 CR_MP_018 CR_MP_019 CR_MP_020 CR_MP_021 CR_MP_022 CR_MP_023 CR_MP_024 OR_O_018"/>
    </vehicle>
    <vehicle id="0_63" depart="57.76" type='warmup' departLane='free' departSpeed='max'>
        <route edges="-19811337#1 758636098#3 758636098#4 758636098#7 758636098#8 758636098#9 758636098#10 758636098#11 758636098#13 758636098#15 758636098#16"/>
    </vehicle>
    <vehicle id="0_64" depart="57.86" type='warmup' departLane='free' departSpeed='max'>
        <route edges="CR_MP_035 CR_MP_036 CR_MP_037 CR_MP_038 CR_MP_039 CR_MP_040 CR_MP_041 CR_MP_042 CR_MP_043 102651364#22 102651364#23.9"/>
    </vehicle>
    <vehicle id="0_65" depart="58.36" type='warmup' departLane='free' departSpeed='max'>
        <route edges="758636098#2 758636098#3 758636098#4 758636098#7 758636098#8 758636098#9 758636098#10 758636098#11 758636098#13 758636098#15 758636098#16 758636098#17 758636098#18"/>
    </vehicle>
    <vehicle id="0_66" depart="58.59" type='warmup' departLane='free' departSpeed='max'>
        <route edges="758636098#2 758636098#3 758636098#4 758636098#7 758636098#8 758636098#9 758636098#10"/>
    </vehicle>
    <vehicle id="0_67" depart="58.61" type='warmup' departLane='free' departSpeed='max'>
        <route edges="gneE5 51133939#5 51133939#6 51133939#7 51133939#8 51133939#9 51133939#10 51133939#12 51133939#13 51133939#14 51133939#15 51133939#17 51133939#18 51086286#1 51086286#2 51086286#3 920870625#0 920870625#1 920870624#1 920870624#2 669189459 OR_O_000"/>
    </vehicle>
    <vehicle id="0_68" depart="58.90" type='warmup' departLane='free' departSpeed='max'>
        <route edges="112446385#5 CR_MP_001 CR_MP_002 CR_MP_003 CR_MP_004 CR_MP_005 CR_MP_006 CR_MP_007 CR_MP_008 CR_MP_009 CR_MP_010 CR_MP_011 CR_MP_012 CR_MP_013 CR_MP_014 CR_MP_015 CR_MP_016 CR_MP_017 CR_MP_018 CR_MP_019 CR_MP_020 CR_MP_021 OR_O_016"/>
    </vehicle>
    <vehicle id="0_69" depart="60.23" type='warmup' departLane='free' departSpeed='max'>
        <route edges="OR_I_008 CR_MP_010 CR_MP_011 CR_MP_012 CR_MP_013 CR_MP_014 CR_MP_015 OR_O_013"/>
    </vehicle>
    <vehicle id="0_70" depart="60.87" type='warmup' departLane='free' departSpeed='max'>
        <route edges="CR_MP_037 CR_MP_038 CR_MP_039 CR_MP_040 CR_MP_041 CR_MP_042 CR_MP_043 102651364#22 102651364#23.9"/>
    </vehicle>
    <vehicle id="0_71" depart="63.29" type='warmup' departLane='free' departSpeed='max'>
        <route edges="112446385#5 CR_MP_001 CR_MP_002 CR_MP_003 CR_MP_004 CR_MP_005 CR_MP_006 CR_MP_007 CR_MP_008 CR_MP_009 CR_MP_010 CR_MP_011 CR_MP_012 CR_MP_013 CR_MP_014 CR_MP_015 CR_MP_016 CR_MP_017 CR_MP_018 CR_MP_019 CR_MP_020 CR_MP_021 CR_MP_022 CR_MP_023 CR_MP_024 OR_O_018"/>
    </vehicle>
    <vehicle id="0_72" depart="63.60" type='warmup' departLane='free' departSpeed='max'>
        <route edges="CR_MP_011 CR_MP_012 CR_MP_013 CR_MP_014 CR_MP_015 CR_MP_016 CR_MP_017 CR_MP_018 CR_MP_019 CR_MP_020 CR_MP_021 CR_MP_022 OR_O_017"/>
    </vehicle>
    <vehicle id="0_73" depart="64.76" type='warmup' departLane='free' departSpeed='max'>
        <route edges="CR_MP_037 CR_MP_038 CR_MP_039 CR_MP_040 CR_MP_041 CR_MP_042 CR_MP_043 102651364#22 102651364#23.9"/>
    </vehicle>
    <vehicle id="0_74" depart="65.31" type='warmup' departLane='free' departSpeed='max'>
        <route edges="OR_I_026 CR_MP_035 CR_MP_036 CR_MP_037 CR_MP_038 CR_MP_039 CR_MP_040 CR_MP_041 CR_MP_042 CR_MP_043 102651364#22 102651364#23.9"/>
    </vehicle>
    <vehicle id="0_75" depart="66.04" type='warmup' departLane='free' departSpeed='max'>
        <route edges="51086283#3 351910071 CR_MP_001 CR_MP_002 CR_MP_003 CR_MP_004 CR_MP_005 CR_MP_006 CR_MP_007 OR_O_006"/>
    </vehicle>
    <vehicle id="0_76" depart="66.73" type='warmup' departLane='free' departSpeed='max'>
        <route edges="OR_I_015 CR_MP_018 CR_MP_019 OP_gneE5"/>
    </vehicle>
    <vehicle id="0_77" depart="67.11" type='warmup' departLane='free' departSpeed='max'>
        <route edges="OR_I_019 CR_MP_026 CR_MP_027"/>
    </vehicle>
    <vehicle id="0_78" depart="70.93" type='warmup' departLane='free' departSpeed='max'>
        <route edges="OR_I_026 CR_MP_035 CR_MP_036 CR_MP_037 CR_MP_038 CR_MP_039 CR_MP_040 CR_MP_041 CR_MP_042 CR_MP_043 102651364#22 102651364#23.9"/>
    </vehicle>
    <vehicle id="0_79" depart="71.60" type='warmup' departLane='free' departSpeed='max'>
        <route edges="112446385#5 CR_MP_001 CR_MP_002 CR_MP_003 CR_MP_004 OR_O_003"/>
    </vehicle>
    <vehicle id="0_80" depart="71.68" type='warmup' departLane='free' departSpeed='max'>
        <route edges="758636098#2 758636098#3 758636098#4 758636098#7 758636098#8 758636098#9 758636098#10 758636098#11 758636098#13 758636098#15 758636098#16 758636098#17 -579012289"/>
    </vehicle>
    <vehicle id="0_81" depart="72.00" type='warmup' departLane='free' departSpeed='max'>
        <route edges="920870624#2 669189459 199382582#0"/>
    </vehicle>
    <vehicle id="0_82" depart="74.18" type='warmup' departLane='free' departSpeed='max'>
        <route edges="OR_I_026 CR_MP_035 CR_MP_036 CR_MP_037 CR_MP_038 CR_MP_039 CR_MP_040 CR_MP_041 CR_MP_042 CR_MP_043 102651364#22 102651364#23.9"/>
    </vehicle>
    <vehicle id="0_83" depart="75.22" type='warmup' departLane='free' departSpeed='max'>
        <route edges="-543357072#1 51086286#3 920870625#0 920870625#1 920870624#1 920870624#2 337818184#0 337818184#1"/>
    </vehicle>
    <vehicle id="0_84" depart="75.32" type='warmup' departLane='free' departSpeed='max'>
        <route edges="OR_I_030 CR_MP_041 CR_MP_042 CR_MP_043 102651364#22 102651364#23.9"/>
    </vehicle>
    <vehicle id="0_85" depart="75.63" type='warmup' departLane='free' departSpeed='max'>
        <route edges="OR_I_015 CR_MP_018 CR_MP_019 CR_MP_020 CR_MP_021 CR_MP_022 CR_MP_023 CR_MP_024 CR_MP_025 CR_MP_026 CR_MP_027 CR_MP_028 CR_MP_029 CR_MP_030 CR_MP_031 CR_MP_032 CR_MP_033 CR_MP_034"/>
    </vehicle>
    <vehicle id="0_86" depart="77.18" type='warmup' departLane='free' departSpeed='max'>
        <route edges="OR_I_002 CR_MP_004 CR_MP_005 CR_MP_006 CR_MP_007 CR_MP_008 CR_MP_009 CR_MP_010 CR_MP_011 CR_MP_012 CR_MP_013 OR_O_011"/>
    </vehicle>
    <vehicle id="0_87" depart="77.30" type='warmup' departLane='free' departSpeed='max'>
        <route edges="OR_I_028 CR_MP_039 CR_MP_040 CR_MP_041 CR_MP_042 CR_MP_043 102651364#22 102651364#23.9"/>
    </vehicle>
    <vehicle id="0_88" depart="78.59" type='warmup' departLane='free' departSpeed='max'>
        <route edges="112446385#5 CR_MP_001 CR_MP_002 CR_MP_003 CR_MP_004 CR_MP_005 CR_MP_006 CR_MP_007 CR_MP_008 CR_MP_009 CR_MP_010 CR_MP_011 CR_MP_012 CR_MP_013 CR_MP_014 CR_MP_015 CR_MP_016 CR_MP_017 CR_MP_018 CR_MP_019 CR_MP_020 CR_MP_021 CR_MP_022 CR_MP_023 CR_MP_024 CR_MP_025 CR_MP_026 CR_MP_027 CR_MP_028 CR_MP_029 CR_MP_030 CR_MP_031 CR_MP_032"/>
    </vehicle>
    <vehicle id="0_89" depart="78.84" type='warmup' departLane='free' departSpeed='max'>
        <route edges="CR_MP_042 CR_MP_043 102651364#22 102651364#23.9"/>
    </vehicle>
    <vehicle id="0_90" depart="79.25" type='warmup' departLane='free' departSpeed='max'>
        <route edges="gneE5 CR_MP_020 CR_MP_021 CR_MP_022 CR_MP_023 CR_MP_024 CR_MP_025 CR_MP_026"/>
    </vehicle>
    <vehicle id="0_91" depart="79.81" type='warmup' departLane='free' departSpeed='max'>
        <route edges="CR_MP_035 CR_MP_036 CR_MP_037 CR_MP_038 CR_MP_039 CR_MP_040 CR_MP_041 CR_MP_042 CR_MP_043 102651364#22 102651364#23.9"/>
    </vehicle>
    <vehicle id="0_92" depart="80.42" type='warmup' departLane='free' departSpeed='max'>
        <route edges="CR_MP_035 CR_MP_036 CR_MP_037 CR_MP_038 OR_O_028"/>
    </vehicle>
    <vehicle id="0_93" depart="80.71" type='warmup' departLane='free' departSpeed='max'>
        <route edges="112446385#5 CR_MP_001 CR_MP_002 CR_MP_003 CR_MP_004 CR_MP_005 CR_MP_006 CR_MP_007 CR_MP_008"/>
    </vehicle>
    <vehicle id="0_94" depart="82.21" type='warmup' departLane='free' departSpeed='max'>
        <route edges="-19811337#1 758636098#3 758636098#4 758636098#7 758636098#8 758636098#9 758636098#10 758636098#11 758636098#13 758636098#15 758636098#16 758636098#17"/>
    </vehicle>
    <vehicle id="0_95" depart="82.57" type='warmup' departLane='free' departSpeed='max'>
        <route edges="112446385#5 CR_MP_001 CR_MP_002 CR_MP_003 CR_MP_004 CR_MP_005 CR_MP_006 CR_MP_007 CR_MP_008 CR_MP_009 CR_MP_010 CR_MP_011 OR_O_009"/>
    </vehicle>
    <vehicle id="0_96" depart="83.08" type='warmup' departLane='free' departSpeed='max'>
        <route edges="OR_I_030 CR_MP_041 CR_MP_042 CR_MP_043 102651364#22 102651364#23.9"/>
    </vehicle>
    <vehicle id="0_97" depart="83.69" type='warmup' departLane='free' departSpeed='max'>
        <route edges="112446385#5 CR_MP_001 CR_MP_002 CR_MP_003 CR_MP_004 CR_MP_005 CR_MP_006 CR_MP_007 CR_MP_008 CR_MP_009 CR_MP_010 CR_MP_011 CR_MP_012 CR_MP_013 CR_MP_014 CR_MP_015 CR_MP_016 CR_MP_017 CR_MP_018 CR_MP_019 CR_MP_020 CR_MP_021 CR_MP_022 CR_MP_023 CR_MP_024 CR_MP_025 CR_MP_026 CR_MP_027 CR_MP_028 CR_MP_029 CR_MP_030 CR_MP_031 CR_MP_032 CR_MP_033 OR_O_025"/>
    </vehicle>
    <vehicle id="0_98" depart="84.61" type='warmup' departLane='free' departSpeed='max'>
        <route edges="758636098#2 758636098#3 758636098#4"/>
    </vehicle>
    <vehicle id="0_99" depart="84.63" type='warmup' departLane='free' departSpeed='max'>
        <route edges="CR_MP_037 CR_MP_038 CR_MP_039 CR_MP_040 CR_MP_041 CR_MP_042 CR_MP_043 102651364#22 102651364#23.9"/>
    </vehicle>
    <vehicle id="0_100" depart="85.29" type='warmup' departLane='free' departSpeed='max'>
        <route edges="51086283#3 351910071 CR_MP_001 CR_MP_002 CR_MP_003 OR_O_002"/>
    </vehicle>
    <vehicle id="0_101" depart="85.46" type='warmup' departLane='free' departSpeed='max'>
        <route edges="OR_I_014 CR_MP_017 CR_MP_018 CR_MP_019 CR_MP_020 CR_MP_021 CR_MP_022 CR_MP_023 CR_MP_024 CR_MP_025 CR_MP_026 CR_MP_027 CR_MP_028 CR_MP_029 CR_MP_030 CR_MP_031 CR_MP_032 CR_MP_033 CR_MP_034"/>
    </vehicle>
    <vehicle id="0_102" depart="85.55" type='warmup' departLane='free' departSpeed='max'>
        <route edges="CR_MP_035 CR_MP_036 CR_MP_037 CR_MP_038 CR_MP_039 CR_MP_040 CR_MP_041 CR_MP_042 CR_MP_043 102651364#22 102651364#23.9"/>
    </vehicle>
    <vehicle id="0_103" depart="86.57" type='warmup' departLane='free' departSpeed='max'>
        <route edges="gneE5 CR_MP_020 CR_MP_021 CR_MP_022 CR_MP_023 CR_MP_024 CR_MP_025 CR_MP_026 CR_MP_027 CR_MP_028 CR_MP_029 CR_MP_030 CR_MP_031 CR_MP_032 OR_O_024"/>
    </vehicle>
    <vehicle id="0_104" depart="87.54" type='warmup' departLane='free' departSpeed='max'>
        <route edges="CR_MP_036 CR_MP_037 CR_MP_038 CR_MP_039 CR_MP_040 CR_MP_041 CR_MP_042 CR_MP_043 19811337#1"/>
    </vehicle>
    <vehicle id="0_105" depart="87.55" type='warmup' departLane='free' departSpeed='max'>
        <route edges="OR_I_014 CR_MP_017 CR_MP_018 CR_MP_019 CR_MP_020 CR_MP_021 CR_MP_022 CR_MP_023 CR_MP_024 CR_MP_025 CR_MP_026 CR_MP_027 CR_MP_028 CR_MP_029 CR_MP_030 CR_MP_031 CR_MP_032 CR_MP_033 CR_MP_034"/>
    </vehicle>
    <vehicle id="0_106" depart="88.19" type='warmup' departLane='free' departSpeed='max'>
        <route edges="CR_MP_035 CR_MP_036 CR_MP_037 CR_MP_038 CR_MP_039 CR_MP_040 CR_MP_041 CR_MP_042 CR_MP_043 102651364#22 102651364#23.9"/>
    </vehicle>
    <vehicle id="0_107" depart="88.65" type='warmup' departLane='free' departSpeed='max'>
        <route edges="112446385#5 CR_MP_001 CR_MP_002 CR_MP_003 CR_MP_004 CR_MP_005 CR_MP_006 CR_MP_007 CR_MP_008 CR_MP_009 CR_MP_010 CR_MP_011 CR_MP_012 CR_MP_013 CR_MP_014 CR_MP_015 CR_MP_016 OR_O_014"/>
    </vehicle>
    <vehicle id="0_108" depart="88.97" type='warmup' departLane='free' departSpeed='max'>
        <route edges="OR_I_020 758636098#22 102650983#0 102650983#2 112446384#1 51133939#1 51133939#2 51133939#3 51133939#4 51133939#5 51133939#6 51133939#7 51133939#8 51133939#9 51133939#10 51133939#12 51133939#13 51133939#14 51133939#15 51133939#17 51133939#18 51086286#1 51086286#2 51086286#3 920870625#0 920870625#1 920870624#1 920870624#2 669189459 199382582#0"/>
    </vehicle>
    <vehicle id="0_109" depart="90.27" type='warmup' departLane='free' departSpeed='max'>
        <route edges="CR_MP_036 CR_MP_037 CR_MP_038 CR_MP_039 CR_MP_040 CR_MP_041 CR_MP_042 CR_MP_043 102651364#22 102651364#23.9"/>
    </vehicle>
    <vehicle id="0_110" depart="91.42" type='warmup' departLane='free' departSpeed='max'>
        <route edges="CR_MP_040 CR_MP_041 CR_MP_042 CR_MP_043 102651364#22 102651364#23.9"/>
    </vehicle>
    <vehicle id="0_111" depart="92.28" type='warmup' departLane='free' departSpeed='max'>
        <route edges="CR_MP_036 CR_MP_037 CR_MP_038 OR_O_028"/>
    </vehicle>